
---------- Begin Simulation Statistics ----------
simSeconds                                   0.018572                       # Number of seconds simulated (Second)
simTicks                                  18572465000                       # Number of ticks simulated (Tick)
finalTick                                 18572465000                       # Number of ticks from beginning of simulation (restored from checkpoints and never reset) (Tick)
simFreq                                  1000000000000                       # The number of ticks per simulated second ((Tick/Second))
hostSeconds                                     42.63                       # Real time elapsed on the host (Second)
hostTickRate                                435644966                       # The number of ticks simulated per host second (ticks/s) ((Tick/Second))
hostMemory                                     674324                       # Number of bytes of host memory used (Byte)
simInsts                                     11630582                       # Number of instructions simulated (Count)
simOps                                       11631686                       # Number of ops (including micro ops) simulated (Count)
hostInstRate                                   272812                       # Simulator instruction rate (inst/s) ((Count/Second))
hostOpRate                                     272838                       # Simulator op (including micro ops) rate (op/s) ((Count/Second))
system.clk_domain.clock                          1000                       # Clock period in ticks (Tick)
system.clk_domain.voltage_domain.voltage            1                       # Voltage in Volts (Volt)
system.cpu.numCycles                         18572466                       # Number of cpu cycles simulated (Cycle)
system.cpu.numWorkItemsStarted                      0                       # Number of work items this cpu started (Count)
system.cpu.numWorkItemsCompleted                    0                       # Number of work items this cpu completed (Count)
system.cpu.instsAdded                        11675084                       # Number of instructions added to the IQ (excludes non-spec) (Count)
system.cpu.nonSpecInstsAdded                       72                       # Number of non-speculative instructions added to the IQ (Count)
system.cpu.instsIssued                       11651783                       # Number of instructions issued (Count)
system.cpu.squashedInstsIssued                    334                       # Number of squashed instructions issued (Count)
system.cpu.squashedInstsExamined                43469                       # Number of squashed instructions iterated over during squash; mainly for profiling (Count)
system.cpu.squashedOperandsExamined             44782                       # Number of squashed operands that are examined and possibly removed from graph (Count)
system.cpu.squashedNonSpecRemoved                  33                       # Number of squashed non-spec instructions that were removed (Count)
system.cpu.numIssuedDist::samples            18556758                       # Number of insts issued each cycle (Count)
system.cpu.numIssuedDist::mean               0.627900                       # Number of insts issued each cycle (Count)
system.cpu.numIssuedDist::stdev              1.103774                       # Number of insts issued each cycle (Count)
system.cpu.numIssuedDist::underflows                0      0.00%      0.00% # Number of insts issued each cycle (Count)
system.cpu.numIssuedDist::0                  11919857     64.23%     64.23% # Number of insts issued each cycle (Count)
system.cpu.numIssuedDist::1                   4008808     21.60%     85.84% # Number of insts issued each cycle (Count)
system.cpu.numIssuedDist::2                   1227396      6.61%     92.45% # Number of insts issued each cycle (Count)
system.cpu.numIssuedDist::3                    883423      4.76%     97.21% # Number of insts issued each cycle (Count)
system.cpu.numIssuedDist::4                    259708      1.40%     98.61% # Number of insts issued each cycle (Count)
system.cpu.numIssuedDist::5                    109434      0.59%     99.20% # Number of insts issued each cycle (Count)
system.cpu.numIssuedDist::6                     90245      0.49%     99.69% # Number of insts issued each cycle (Count)
system.cpu.numIssuedDist::7                     52654      0.28%     99.97% # Number of insts issued each cycle (Count)
system.cpu.numIssuedDist::8                      5233      0.03%    100.00% # Number of insts issued each cycle (Count)
system.cpu.numIssuedDist::overflows                 0      0.00%    100.00% # Number of insts issued each cycle (Count)
system.cpu.numIssuedDist::min_value                 0                       # Number of insts issued each cycle (Count)
system.cpu.numIssuedDist::max_value                 8                       # Number of insts issued each cycle (Count)
system.cpu.numIssuedDist::total              18556758                       # Number of insts issued each cycle (Count)
system.cpu.statFuBusy::No_OpClass                   0      0.00%      0.00% # attempts to use FU when none available (Count)
system.cpu.statFuBusy::IntAlu                     118     12.42%     12.42% # attempts to use FU when none available (Count)
system.cpu.statFuBusy::IntMult                      0      0.00%     12.42% # attempts to use FU when none available (Count)
system.cpu.statFuBusy::IntDiv                       0      0.00%     12.42% # attempts to use FU when none available (Count)
system.cpu.statFuBusy::FloatAdd                     0      0.00%     12.42% # attempts to use FU when none available (Count)
system.cpu.statFuBusy::FloatCmp                     0      0.00%     12.42% # attempts to use FU when none available (Count)
system.cpu.statFuBusy::FloatCvt                     0      0.00%     12.42% # attempts to use FU when none available (Count)
system.cpu.statFuBusy::FloatMult                    0      0.00%     12.42% # attempts to use FU when none available (Count)
system.cpu.statFuBusy::FloatMultAcc                 0      0.00%     12.42% # attempts to use FU when none available (Count)
system.cpu.statFuBusy::FloatDiv                     0      0.00%     12.42% # attempts to use FU when none available (Count)
system.cpu.statFuBusy::FloatMisc                    0      0.00%     12.42% # attempts to use FU when none available (Count)
system.cpu.statFuBusy::FloatSqrt                    0      0.00%     12.42% # attempts to use FU when none available (Count)
system.cpu.statFuBusy::SimdAdd                      0      0.00%     12.42% # attempts to use FU when none available (Count)
system.cpu.statFuBusy::SimdAddAcc                   0      0.00%     12.42% # attempts to use FU when none available (Count)
system.cpu.statFuBusy::SimdAlu                      0      0.00%     12.42% # attempts to use FU when none available (Count)
system.cpu.statFuBusy::SimdCmp                      0      0.00%     12.42% # attempts to use FU when none available (Count)
system.cpu.statFuBusy::SimdCvt                      0      0.00%     12.42% # attempts to use FU when none available (Count)
system.cpu.statFuBusy::SimdMisc                     0      0.00%     12.42% # attempts to use FU when none available (Count)
system.cpu.statFuBusy::SimdMult                     0      0.00%     12.42% # attempts to use FU when none available (Count)
system.cpu.statFuBusy::SimdMultAcc                  0      0.00%     12.42% # attempts to use FU when none available (Count)
system.cpu.statFuBusy::SimdShift                    0      0.00%     12.42% # attempts to use FU when none available (Count)
system.cpu.statFuBusy::SimdShiftAcc                 0      0.00%     12.42% # attempts to use FU when none available (Count)
system.cpu.statFuBusy::SimdDiv                      0      0.00%     12.42% # attempts to use FU when none available (Count)
system.cpu.statFuBusy::SimdSqrt                     0      0.00%     12.42% # attempts to use FU when none available (Count)
system.cpu.statFuBusy::SimdFloatAdd                 0      0.00%     12.42% # attempts to use FU when none available (Count)
system.cpu.statFuBusy::SimdFloatAlu                 0      0.00%     12.42% # attempts to use FU when none available (Count)
system.cpu.statFuBusy::SimdFloatCmp                 0      0.00%     12.42% # attempts to use FU when none available (Count)
system.cpu.statFuBusy::SimdFloatCvt                 0      0.00%     12.42% # attempts to use FU when none available (Count)
system.cpu.statFuBusy::SimdFloatDiv                 0      0.00%     12.42% # attempts to use FU when none available (Count)
system.cpu.statFuBusy::SimdFloatMisc                0      0.00%     12.42% # attempts to use FU when none available (Count)
system.cpu.statFuBusy::SimdFloatMult                0      0.00%     12.42% # attempts to use FU when none available (Count)
system.cpu.statFuBusy::SimdFloatMultAcc             0      0.00%     12.42% # attempts to use FU when none available (Count)
system.cpu.statFuBusy::SimdFloatSqrt                0      0.00%     12.42% # attempts to use FU when none available (Count)
system.cpu.statFuBusy::SimdReduceAdd                0      0.00%     12.42% # attempts to use FU when none available (Count)
system.cpu.statFuBusy::SimdReduceAlu                0      0.00%     12.42% # attempts to use FU when none available (Count)
system.cpu.statFuBusy::SimdReduceCmp                0      0.00%     12.42% # attempts to use FU when none available (Count)
system.cpu.statFuBusy::SimdFloatReduceAdd            0      0.00%     12.42% # attempts to use FU when none available (Count)
system.cpu.statFuBusy::SimdFloatReduceCmp            0      0.00%     12.42% # attempts to use FU when none available (Count)
system.cpu.statFuBusy::SimdAes                      0      0.00%     12.42% # attempts to use FU when none available (Count)
system.cpu.statFuBusy::SimdAesMix                   0      0.00%     12.42% # attempts to use FU when none available (Count)
system.cpu.statFuBusy::SimdSha1Hash                 0      0.00%     12.42% # attempts to use FU when none available (Count)
system.cpu.statFuBusy::SimdSha1Hash2                0      0.00%     12.42% # attempts to use FU when none available (Count)
system.cpu.statFuBusy::SimdSha256Hash               0      0.00%     12.42% # attempts to use FU when none available (Count)
system.cpu.statFuBusy::SimdSha256Hash2              0      0.00%     12.42% # attempts to use FU when none available (Count)
system.cpu.statFuBusy::SimdShaSigma2                0      0.00%     12.42% # attempts to use FU when none available (Count)
system.cpu.statFuBusy::SimdShaSigma3                0      0.00%     12.42% # attempts to use FU when none available (Count)
system.cpu.statFuBusy::SimdPredAlu                  0      0.00%     12.42% # attempts to use FU when none available (Count)
system.cpu.statFuBusy::MemRead                    665     70.00%     82.42% # attempts to use FU when none available (Count)
system.cpu.statFuBusy::MemWrite                   167     17.58%    100.00% # attempts to use FU when none available (Count)
system.cpu.statFuBusy::FloatMemRead                 0      0.00%    100.00% # attempts to use FU when none available (Count)
system.cpu.statFuBusy::FloatMemWrite                0      0.00%    100.00% # attempts to use FU when none available (Count)
system.cpu.statFuBusy::IprAccess                    0      0.00%    100.00% # attempts to use FU when none available (Count)
system.cpu.statFuBusy::InstPrefetch                 0      0.00%    100.00% # attempts to use FU when none available (Count)
system.cpu.statIssuedInstType_0::No_OpClass           15      0.00%      0.00% # Number of instructions issued per FU type, per thread (Count)
system.cpu.statIssuedInstType_0::IntAlu       4515812     38.76%     38.76% # Number of instructions issued per FU type, per thread (Count)
system.cpu.statIssuedInstType_0::IntMult       750374      6.44%     45.20% # Number of instructions issued per FU type, per thread (Count)
system.cpu.statIssuedInstType_0::IntDiv             3      0.00%     45.20% # Number of instructions issued per FU type, per thread (Count)
system.cpu.statIssuedInstType_0::FloatAdd            0      0.00%     45.20% # Number of instructions issued per FU type, per thread (Count)
system.cpu.statIssuedInstType_0::FloatCmp            0      0.00%     45.20% # Number of instructions issued per FU type, per thread (Count)
system.cpu.statIssuedInstType_0::FloatCvt            0      0.00%     45.20% # Number of instructions issued per FU type, per thread (Count)
system.cpu.statIssuedInstType_0::FloatMult            0      0.00%     45.20% # Number of instructions issued per FU type, per thread (Count)
system.cpu.statIssuedInstType_0::FloatMultAcc            0      0.00%     45.20% # Number of instructions issued per FU type, per thread (Count)
system.cpu.statIssuedInstType_0::FloatDiv            0      0.00%     45.20% # Number of instructions issued per FU type, per thread (Count)
system.cpu.statIssuedInstType_0::FloatMisc            4      0.00%     45.20% # Number of instructions issued per FU type, per thread (Count)
system.cpu.statIssuedInstType_0::FloatSqrt            0      0.00%     45.20% # Number of instructions issued per FU type, per thread (Count)
system.cpu.statIssuedInstType_0::SimdAdd            4      0.00%     45.20% # Number of instructions issued per FU type, per thread (Count)
system.cpu.statIssuedInstType_0::SimdAddAcc            0      0.00%     45.20% # Number of instructions issued per FU type, per thread (Count)
system.cpu.statIssuedInstType_0::SimdAlu            6      0.00%     45.20% # Number of instructions issued per FU type, per thread (Count)
system.cpu.statIssuedInstType_0::SimdCmp            8      0.00%     45.20% # Number of instructions issued per FU type, per thread (Count)
system.cpu.statIssuedInstType_0::SimdCvt            0      0.00%     45.20% # Number of instructions issued per FU type, per thread (Count)
system.cpu.statIssuedInstType_0::SimdMisc            6      0.00%     45.20% # Number of instructions issued per FU type, per thread (Count)
system.cpu.statIssuedInstType_0::SimdMult            0      0.00%     45.20% # Number of instructions issued per FU type, per thread (Count)
system.cpu.statIssuedInstType_0::SimdMultAcc            0      0.00%     45.20% # Number of instructions issued per FU type, per thread (Count)
system.cpu.statIssuedInstType_0::SimdShift            0      0.00%     45.20% # Number of instructions issued per FU type, per thread (Count)
system.cpu.statIssuedInstType_0::SimdShiftAcc            0      0.00%     45.20% # Number of instructions issued per FU type, per thread (Count)
system.cpu.statIssuedInstType_0::SimdDiv            0      0.00%     45.20% # Number of instructions issued per FU type, per thread (Count)
system.cpu.statIssuedInstType_0::SimdSqrt            0      0.00%     45.20% # Number of instructions issued per FU type, per thread (Count)
system.cpu.statIssuedInstType_0::SimdFloatAdd            0      0.00%     45.20% # Number of instructions issued per FU type, per thread (Count)
system.cpu.statIssuedInstType_0::SimdFloatAlu            0      0.00%     45.20% # Number of instructions issued per FU type, per thread (Count)
system.cpu.statIssuedInstType_0::SimdFloatCmp            0      0.00%     45.20% # Number of instructions issued per FU type, per thread (Count)
system.cpu.statIssuedInstType_0::SimdFloatCvt            0      0.00%     45.20% # Number of instructions issued per FU type, per thread (Count)
system.cpu.statIssuedInstType_0::SimdFloatDiv            0      0.00%     45.20% # Number of instructions issued per FU type, per thread (Count)
system.cpu.statIssuedInstType_0::SimdFloatMisc            0      0.00%     45.20% # Number of instructions issued per FU type, per thread (Count)
system.cpu.statIssuedInstType_0::SimdFloatMult            0      0.00%     45.20% # Number of instructions issued per FU type, per thread (Count)
system.cpu.statIssuedInstType_0::SimdFloatMultAcc            0      0.00%     45.20% # Number of instructions issued per FU type, per thread (Count)
system.cpu.statIssuedInstType_0::SimdFloatSqrt            0      0.00%     45.20% # Number of instructions issued per FU type, per thread (Count)
system.cpu.statIssuedInstType_0::SimdReduceAdd            0      0.00%     45.20% # Number of instructions issued per FU type, per thread (Count)
system.cpu.statIssuedInstType_0::SimdReduceAlu            0      0.00%     45.20% # Number of instructions issued per FU type, per thread (Count)
system.cpu.statIssuedInstType_0::SimdReduceCmp            0      0.00%     45.20% # Number of instructions issued per FU type, per thread (Count)
system.cpu.statIssuedInstType_0::SimdFloatReduceAdd            0      0.00%     45.20% # Number of instructions issued per FU type, per thread (Count)
system.cpu.statIssuedInstType_0::SimdFloatReduceCmp            0      0.00%     45.20% # Number of instructions issued per FU type, per thread (Count)
system.cpu.statIssuedInstType_0::SimdAes            0      0.00%     45.20% # Number of instructions issued per FU type, per thread (Count)
system.cpu.statIssuedInstType_0::SimdAesMix            0      0.00%     45.20% # Number of instructions issued per FU type, per thread (Count)
system.cpu.statIssuedInstType_0::SimdSha1Hash            0      0.00%     45.20% # Number of instructions issued per FU type, per thread (Count)
system.cpu.statIssuedInstType_0::SimdSha1Hash2            0      0.00%     45.20% # Number of instructions issued per FU type, per thread (Count)
system.cpu.statIssuedInstType_0::SimdSha256Hash            0      0.00%     45.20% # Number of instructions issued per FU type, per thread (Count)
system.cpu.statIssuedInstType_0::SimdSha256Hash2            0      0.00%     45.20% # Number of instructions issued per FU type, per thread (Count)
system.cpu.statIssuedInstType_0::SimdShaSigma2            0      0.00%     45.20% # Number of instructions issued per FU type, per thread (Count)
system.cpu.statIssuedInstType_0::SimdShaSigma3            0      0.00%     45.20% # Number of instructions issued per FU type, per thread (Count)
system.cpu.statIssuedInstType_0::SimdPredAlu            0      0.00%     45.20% # Number of instructions issued per FU type, per thread (Count)
system.cpu.statIssuedInstType_0::MemRead      3319078     28.49%     73.68% # Number of instructions issued per FU type, per thread (Count)
system.cpu.statIssuedInstType_0::MemWrite      3066473     26.32%    100.00% # Number of instructions issued per FU type, per thread (Count)
system.cpu.statIssuedInstType_0::FloatMemRead            0      0.00%    100.00% # Number of instructions issued per FU type, per thread (Count)
system.cpu.statIssuedInstType_0::FloatMemWrite            0      0.00%    100.00% # Number of instructions issued per FU type, per thread (Count)
system.cpu.statIssuedInstType_0::IprAccess            0      0.00%    100.00% # Number of instructions issued per FU type, per thread (Count)
system.cpu.statIssuedInstType_0::InstPrefetch            0      0.00%    100.00% # Number of instructions issued per FU type, per thread (Count)
system.cpu.statIssuedInstType_0::total       11651783                       # Number of instructions issued per FU type, per thread (Count)
system.cpu.issueRate                         0.627369                       # Inst issue rate ((Count/Cycle))
system.cpu.fuBusy                                 950                       # FU busy when requested (Count)
system.cpu.fuBusyRate                        0.000082                       # FU busy rate (busy events/executed inst) ((Count/Count))
system.cpu.intInstQueueReads                 41861251                       # Number of integer instruction queue reads (Count)
system.cpu.intInstQueueWrites                11720005                       # Number of integer instruction queue writes (Count)
system.cpu.intInstQueueWakeupAccesses        11647209                       # Number of integer instruction queue wakeup accesses (Count)
system.cpu.fpInstQueueReads                         0                       # Number of floating instruction queue reads (Count)
system.cpu.fpInstQueueWrites                        0                       # Number of floating instruction queue writes (Count)
system.cpu.fpInstQueueWakeupAccesses                0                       # Number of floating instruction queue wakeup accesses (Count)
system.cpu.vecInstQueueReads                      357                       # Number of vector instruction queue reads (Count)
system.cpu.vecInstQueueWrites                     280                       # Number of vector instruction queue writes (Count)
system.cpu.vecInstQueueWakeupAccesses             131                       # Number of vector instruction queue wakeup accesses (Count)
system.cpu.intAluAccesses                    11652541                       # Number of integer alu accesses (Count)
system.cpu.fpAluAccesses                            0                       # Number of floating point alu accesses (Count)
system.cpu.vecAluAccesses                         177                       # Number of vector alu accesses (Count)
system.cpu.numInsts                          11649133                       # Number of executed instructions (Count)
system.cpu.numLoadInsts                       3318309                       # Number of load instructions executed (Count)
system.cpu.numSquashedInsts                      2650                       # Number of squashed instructions skipped in execute (Count)
system.cpu.numSwp                                   0                       # Number of swp insts executed (Count)
system.cpu.numNop                                  51                       # Number of nop insts executed (Count)
system.cpu.numRefs                            6384134                       # Number of memory reference insts executed (Count)
system.cpu.numBranches                          64530                       # Number of branches executed (Count)
system.cpu.numStoreInsts                      3065825                       # Number of stores executed (Count)
system.cpu.numRate                           0.627226                       # Inst execution rate ((Count/Cycle))
system.cpu.timesIdled                             245                       # Number of times that the entire CPU went into an idle state and unscheduled itself (Count)
system.cpu.idleCycles                           15708                       # Total number of cycles that the CPU has spent unscheduled due to idling (Cycle)
system.cpu.committedInsts                    11630582                       # Number of Instructions Simulated (Count)
system.cpu.committedOps                      11631686                       # Number of Ops (including micro ops) Simulated (Count)
system.cpu.cpi                               1.596865                       # CPI: Cycles Per Instruction ((Cycle/Count))
system.cpu.totalCpi                          1.596865                       # CPI: Total CPI of All Threads ((Cycle/Count))
system.cpu.ipc                               0.626227                       # IPC: Instructions Per Cycle ((Count/Cycle))
system.cpu.totalIpc                          0.626227                       # IPC: Total IPC of All Threads ((Count/Cycle))
system.cpu.intRegfileReads                   15399535                       # Number of integer regfile reads (Count)
system.cpu.intRegfileWrites                   8204508                       # Number of integer regfile writes (Count)
system.cpu.vecRegfileReads                        175                       # number of vector regfile reads (Count)
system.cpu.ccRegfileReads                     1316757                       # number of cc regfile reads (Count)
system.cpu.ccRegfileWrites                    1317555                       # number of cc regfile writes (Count)
system.cpu.miscRegfileReads                     64274                       # number of misc regfile reads (Count)
system.cpu.miscRegfileWrites                       33                       # number of misc regfile writes (Count)
system.cpu.MemDepUnit__0.insertedLoads        3324883                       # Number of loads inserted to the mem dependence unit. (Count)
system.cpu.MemDepUnit__0.insertedStores       3073745                       # Number of stores inserted to the mem dependence unit. (Count)
system.cpu.MemDepUnit__0.conflictingLoads      3025319                       # Number of conflicting loads. (Count)
system.cpu.MemDepUnit__0.conflictingStores      1469833                       # Number of conflicting stores. (Count)
system.cpu.MemDepUnit__1.insertedLoads              0                       # Number of loads inserted to the mem dependence unit. (Count)
system.cpu.MemDepUnit__1.insertedStores             0                       # Number of stores inserted to the mem dependence unit. (Count)
system.cpu.MemDepUnit__1.conflictingLoads            0                       # Number of conflicting loads. (Count)
system.cpu.MemDepUnit__1.conflictingStores            0                       # Number of conflicting stores. (Count)
system.cpu.MemDepUnit__2.insertedLoads              0                       # Number of loads inserted to the mem dependence unit. (Count)
system.cpu.MemDepUnit__2.insertedStores             0                       # Number of stores inserted to the mem dependence unit. (Count)
system.cpu.MemDepUnit__2.conflictingLoads            0                       # Number of conflicting loads. (Count)
system.cpu.MemDepUnit__2.conflictingStores            0                       # Number of conflicting stores. (Count)
system.cpu.MemDepUnit__3.insertedLoads              0                       # Number of loads inserted to the mem dependence unit. (Count)
system.cpu.MemDepUnit__3.insertedStores             0                       # Number of stores inserted to the mem dependence unit. (Count)
system.cpu.MemDepUnit__3.conflictingLoads            0                       # Number of conflicting loads. (Count)
system.cpu.MemDepUnit__3.conflictingStores            0                       # Number of conflicting stores. (Count)
system.cpu.branchPred.lookups                   66510                       # Number of BP lookups (Count)
system.cpu.branchPred.condPredicted             65442                       # Number of conditional branches predicted (Count)
system.cpu.branchPred.condIncorrect               537                       # Number of conditional branches incorrect (Count)
system.cpu.branchPred.BTBLookups                64686                       # Number of BTB lookups (Count)
system.cpu.branchPred.BTBUpdates                  469                       # Number of BTB updates (Count)
system.cpu.branchPred.BTBHits                   63837                       # Number of BTB hits (Count)
system.cpu.branchPred.BTBHitRatio            0.986875                       # BTB Hit Ratio (Ratio)
system.cpu.branchPred.RASUsed                     332                       # Number of times the RAS was used to get a target. (Count)
system.cpu.branchPred.RASIncorrect                  0                       # Number of incorrect RAS predictions. (Count)
system.cpu.branchPred.indirectLookups              54                       # Number of indirect predictor lookups. (Count)
system.cpu.branchPred.indirectHits                  3                       # Number of indirect target hits. (Count)
system.cpu.branchPred.indirectMisses               51                       # Number of indirect misses. (Count)
system.cpu.branchPred.indirectMispredicted           22                       # Number of mispredicted indirect branches. (Count)
system.cpu.commit.commitSquashedInsts           43956                       # The number of squashed insts skipped by commit (Count)
system.cpu.commit.commitNonSpecStalls              39                       # The number of times commit has been forced to stall to communicate backwards (Count)
system.cpu.commit.branchMispredicts               345                       # The number of times a branch was mispredicted (Count)
system.cpu.commit.numCommittedDist::samples     18549846                       # Number of insts commited each cycle (Count)
system.cpu.commit.numCommittedDist::mean     0.627052                       # Number of insts commited each cycle (Count)
system.cpu.commit.numCommittedDist::stdev     1.884342                       # Number of insts commited each cycle (Count)
system.cpu.commit.numCommittedDist::underflows            0      0.00%      0.00% # Number of insts commited each cycle (Count)
system.cpu.commit.numCommittedDist::0        15447508     83.28%     83.28% # Number of insts commited each cycle (Count)
system.cpu.commit.numCommittedDist::1         1363282      7.35%     90.62% # Number of insts commited each cycle (Count)
system.cpu.commit.numCommittedDist::2          410683      2.21%     92.84% # Number of insts commited each cycle (Count)
system.cpu.commit.numCommittedDist::3           57969      0.31%     93.15% # Number of insts commited each cycle (Count)
system.cpu.commit.numCommittedDist::4           43819      0.24%     93.39% # Number of insts commited each cycle (Count)
system.cpu.commit.numCommittedDist::5          187089      1.01%     94.40% # Number of insts commited each cycle (Count)
system.cpu.commit.numCommittedDist::6           14259      0.08%     94.47% # Number of insts commited each cycle (Count)
system.cpu.commit.numCommittedDist::7          125009      0.67%     95.15% # Number of insts commited each cycle (Count)
system.cpu.commit.numCommittedDist::8          900228      4.85%    100.00% # Number of insts commited each cycle (Count)
system.cpu.commit.numCommittedDist::overflows            0      0.00%    100.00% # Number of insts commited each cycle (Count)
system.cpu.commit.numCommittedDist::min_value            0                       # Number of insts commited each cycle (Count)
system.cpu.commit.numCommittedDist::max_value            8                       # Number of insts commited each cycle (Count)
system.cpu.commit.numCommittedDist::total     18549846                       # Number of insts commited each cycle (Count)
system.cpu.commit.instsCommitted             11630613                       # Number of instructions committed (Count)
system.cpu.commit.opsCommitted               11631717                       # Number of ops (including micro ops) committed (Count)
system.cpu.commit.memRefs                     6376996                       # Number of memory references committed (Count)
system.cpu.commit.loads                       3313369                       # Number of loads committed (Count)
system.cpu.commit.amos                              8                       # Number of atomic instructions committed (Count)
system.cpu.commit.membars                          14                       # Number of memory barriers committed (Count)
system.cpu.commit.branches                      63748                       # Number of branches committed (Count)
system.cpu.commit.vectorInstructions              102                       # Number of committed Vector instructions. (Count)
system.cpu.commit.floating                          0                       # Number of committed floating point instructions. (Count)
system.cpu.commit.integer                    11568485                       # Number of committed integer instructions. (Count)
system.cpu.commit.functionCalls                   131                       # Number of function calls committed. (Count)
system.cpu.commit.committedInstType_0::No_OpClass           15      0.00%      0.00% # Class of committed instruction (Count)
system.cpu.commit.committedInstType_0::IntAlu      4504669     38.73%     38.73% # Class of committed instruction (Count)
system.cpu.commit.committedInstType_0::IntMult       750007      6.45%     45.18% # Class of committed instruction (Count)
system.cpu.commit.committedInstType_0::IntDiv            3      0.00%     45.18% # Class of committed instruction (Count)
system.cpu.commit.committedInstType_0::FloatAdd            0      0.00%     45.18% # Class of committed instruction (Count)
system.cpu.commit.committedInstType_0::FloatCmp            0      0.00%     45.18% # Class of committed instruction (Count)
system.cpu.commit.committedInstType_0::FloatCvt            0      0.00%     45.18% # Class of committed instruction (Count)
system.cpu.commit.committedInstType_0::FloatMult            0      0.00%     45.18% # Class of committed instruction (Count)
system.cpu.commit.committedInstType_0::FloatMultAcc            0      0.00%     45.18% # Class of committed instruction (Count)
system.cpu.commit.committedInstType_0::FloatDiv            0      0.00%     45.18% # Class of committed instruction (Count)
system.cpu.commit.committedInstType_0::FloatMisc            4      0.00%     45.18% # Class of committed instruction (Count)
system.cpu.commit.committedInstType_0::FloatSqrt            0      0.00%     45.18% # Class of committed instruction (Count)
system.cpu.commit.committedInstType_0::SimdAdd            4      0.00%     45.18% # Class of committed instruction (Count)
system.cpu.commit.committedInstType_0::SimdAddAcc            0      0.00%     45.18% # Class of committed instruction (Count)
system.cpu.commit.committedInstType_0::SimdAlu            6      0.00%     45.18% # Class of committed instruction (Count)
system.cpu.commit.committedInstType_0::SimdCmp            8      0.00%     45.18% # Class of committed instruction (Count)
system.cpu.commit.committedInstType_0::SimdCvt            0      0.00%     45.18% # Class of committed instruction (Count)
system.cpu.commit.committedInstType_0::SimdMisc            5      0.00%     45.18% # Class of committed instruction (Count)
system.cpu.commit.committedInstType_0::SimdMult            0      0.00%     45.18% # Class of committed instruction (Count)
system.cpu.commit.committedInstType_0::SimdMultAcc            0      0.00%     45.18% # Class of committed instruction (Count)
system.cpu.commit.committedInstType_0::SimdShift            0      0.00%     45.18% # Class of committed instruction (Count)
system.cpu.commit.committedInstType_0::SimdShiftAcc            0      0.00%     45.18% # Class of committed instruction (Count)
system.cpu.commit.committedInstType_0::SimdDiv            0      0.00%     45.18% # Class of committed instruction (Count)
system.cpu.commit.committedInstType_0::SimdSqrt            0      0.00%     45.18% # Class of committed instruction (Count)
system.cpu.commit.committedInstType_0::SimdFloatAdd            0      0.00%     45.18% # Class of committed instruction (Count)
system.cpu.commit.committedInstType_0::SimdFloatAlu            0      0.00%     45.18% # Class of committed instruction (Count)
system.cpu.commit.committedInstType_0::SimdFloatCmp            0      0.00%     45.18% # Class of committed instruction (Count)
system.cpu.commit.committedInstType_0::SimdFloatCvt            0      0.00%     45.18% # Class of committed instruction (Count)
system.cpu.commit.committedInstType_0::SimdFloatDiv            0      0.00%     45.18% # Class of committed instruction (Count)
system.cpu.commit.committedInstType_0::SimdFloatMisc            0      0.00%     45.18% # Class of committed instruction (Count)
system.cpu.commit.committedInstType_0::SimdFloatMult            0      0.00%     45.18% # Class of committed instruction (Count)
system.cpu.commit.committedInstType_0::SimdFloatMultAcc            0      0.00%     45.18% # Class of committed instruction (Count)
system.cpu.commit.committedInstType_0::SimdFloatSqrt            0      0.00%     45.18% # Class of committed instruction (Count)
system.cpu.commit.committedInstType_0::SimdReduceAdd            0      0.00%     45.18% # Class of committed instruction (Count)
system.cpu.commit.committedInstType_0::SimdReduceAlu            0      0.00%     45.18% # Class of committed instruction (Count)
system.cpu.commit.committedInstType_0::SimdReduceCmp            0      0.00%     45.18% # Class of committed instruction (Count)
system.cpu.commit.committedInstType_0::SimdFloatReduceAdd            0      0.00%     45.18% # Class of committed instruction (Count)
system.cpu.commit.committedInstType_0::SimdFloatReduceCmp            0      0.00%     45.18% # Class of committed instruction (Count)
system.cpu.commit.committedInstType_0::SimdAes            0      0.00%     45.18% # Class of committed instruction (Count)
system.cpu.commit.committedInstType_0::SimdAesMix            0      0.00%     45.18% # Class of committed instruction (Count)
system.cpu.commit.committedInstType_0::SimdSha1Hash            0      0.00%     45.18% # Class of committed instruction (Count)
system.cpu.commit.committedInstType_0::SimdSha1Hash2            0      0.00%     45.18% # Class of committed instruction (Count)
system.cpu.commit.committedInstType_0::SimdSha256Hash            0      0.00%     45.18% # Class of committed instruction (Count)
system.cpu.commit.committedInstType_0::SimdSha256Hash2            0      0.00%     45.18% # Class of committed instruction (Count)
system.cpu.commit.committedInstType_0::SimdShaSigma2            0      0.00%     45.18% # Class of committed instruction (Count)
system.cpu.commit.committedInstType_0::SimdShaSigma3            0      0.00%     45.18% # Class of committed instruction (Count)
system.cpu.commit.committedInstType_0::SimdPredAlu            0      0.00%     45.18% # Class of committed instruction (Count)
system.cpu.commit.committedInstType_0::MemRead      3313369     28.49%     73.66% # Class of committed instruction (Count)
system.cpu.commit.committedInstType_0::MemWrite      3063627     26.34%    100.00% # Class of committed instruction (Count)
system.cpu.commit.committedInstType_0::FloatMemRead            0      0.00%    100.00% # Class of committed instruction (Count)
system.cpu.commit.committedInstType_0::FloatMemWrite            0      0.00%    100.00% # Class of committed instruction (Count)
system.cpu.commit.committedInstType_0::IprAccess            0      0.00%    100.00% # Class of committed instruction (Count)
system.cpu.commit.committedInstType_0::InstPrefetch            0      0.00%    100.00% # Class of committed instruction (Count)
system.cpu.commit.committedInstType_0::total     11631717                       # Class of committed instruction (Count)
system.cpu.commit.commitEligibleSamples        900228                       # number cycles where commit BW limit reached (Cycle)
system.cpu.dcache.demandHits::cpu.data        3192128                       # number of demand (read+write) hits (Count)
system.cpu.dcache.demandHits::total           3192128                       # number of demand (read+write) hits (Count)
system.cpu.dcache.overallHits::cpu.data       3192128                       # number of overall hits (Count)
system.cpu.dcache.overallHits::total          3192128                       # number of overall hits (Count)
system.cpu.dcache.demandMisses::cpu.data       125741                       # number of demand (read+write) misses (Count)
system.cpu.dcache.demandMisses::total          125741                       # number of demand (read+write) misses (Count)
system.cpu.dcache.overallMisses::cpu.data       125741                       # number of overall misses (Count)
system.cpu.dcache.overallMisses::total         125741                       # number of overall misses (Count)
system.cpu.dcache.demandMissLatency::cpu.data  16114421968                       # number of demand (read+write) miss ticks (Tick)
system.cpu.dcache.demandMissLatency::total  16114421968                       # number of demand (read+write) miss ticks (Tick)
system.cpu.dcache.overallMissLatency::cpu.data  16114421968                       # number of overall miss ticks (Tick)
system.cpu.dcache.overallMissLatency::total  16114421968                       # number of overall miss ticks (Tick)
system.cpu.dcache.demandAccesses::cpu.data      3317869                       # number of demand (read+write) accesses (Count)
system.cpu.dcache.demandAccesses::total       3317869                       # number of demand (read+write) accesses (Count)
system.cpu.dcache.overallAccesses::cpu.data      3317869                       # number of overall (read+write) accesses (Count)
system.cpu.dcache.overallAccesses::total      3317869                       # number of overall (read+write) accesses (Count)
system.cpu.dcache.demandMissRate::cpu.data     0.037898                       # miss rate for demand accesses (Ratio)
system.cpu.dcache.demandMissRate::total      0.037898                       # miss rate for demand accesses (Ratio)
system.cpu.dcache.overallMissRate::cpu.data     0.037898                       # miss rate for overall accesses (Ratio)
system.cpu.dcache.overallMissRate::total     0.037898                       # miss rate for overall accesses (Ratio)
system.cpu.dcache.demandAvgMissLatency::cpu.data 128155.668939                       # average overall miss latency in ticks ((Tick/Count))
system.cpu.dcache.demandAvgMissLatency::total 128155.668939                       # average overall miss latency in ticks ((Tick/Count))
system.cpu.dcache.overallAvgMissLatency::cpu.data 128155.668939                       # average overall miss latency ((Tick/Count))
system.cpu.dcache.overallAvgMissLatency::total 128155.668939                       # average overall miss latency ((Tick/Count))
system.cpu.dcache.blockedCycles::no_mshrs         1831                       # number of cycles access was blocked (Cycle)
system.cpu.dcache.blockedCycles::no_targets            0                       # number of cycles access was blocked (Cycle)
system.cpu.dcache.blockedCauses::no_mshrs           72                       # number of times access was blocked (Count)
system.cpu.dcache.blockedCauses::no_targets            0                       # number of times access was blocked (Count)
system.cpu.dcache.avgBlocked::no_mshrs      25.430556                       # average number of cycles each access was blocked ((Cycle/Count))
system.cpu.dcache.avgBlocked::no_targets          nan                       # average number of cycles each access was blocked ((Cycle/Count))
system.cpu.dcache.writebacks::writebacks        62120                       # number of writebacks (Count)
system.cpu.dcache.writebacks::total             62120                       # number of writebacks (Count)
system.cpu.dcache.demandMshrHits::cpu.data          502                       # number of demand (read+write) MSHR hits (Count)
system.cpu.dcache.demandMshrHits::total           502                       # number of demand (read+write) MSHR hits (Count)
system.cpu.dcache.overallMshrHits::cpu.data          502                       # number of overall MSHR hits (Count)
system.cpu.dcache.overallMshrHits::total          502                       # number of overall MSHR hits (Count)
system.cpu.dcache.demandMshrMisses::cpu.data       125239                       # number of demand (read+write) MSHR misses (Count)
system.cpu.dcache.demandMshrMisses::total       125239                       # number of demand (read+write) MSHR misses (Count)
system.cpu.dcache.overallMshrMisses::cpu.data       125239                       # number of overall MSHR misses (Count)
system.cpu.dcache.overallMshrMisses::total       125239                       # number of overall MSHR misses (Count)
system.cpu.dcache.demandMshrMissLatency::cpu.data  15822881993                       # number of demand (read+write) MSHR miss ticks (Tick)
system.cpu.dcache.demandMshrMissLatency::total  15822881993                       # number of demand (read+write) MSHR miss ticks (Tick)
system.cpu.dcache.overallMshrMissLatency::cpu.data  15822881993                       # number of overall MSHR miss ticks (Tick)
system.cpu.dcache.overallMshrMissLatency::total  15822881993                       # number of overall MSHR miss ticks (Tick)
system.cpu.dcache.demandMshrMissRate::cpu.data     0.037747                       # mshr miss ratio for demand accesses (Ratio)
system.cpu.dcache.demandMshrMissRate::total     0.037747                       # mshr miss ratio for demand accesses (Ratio)
system.cpu.dcache.overallMshrMissRate::cpu.data     0.037747                       # mshr miss ratio for overall accesses (Ratio)
system.cpu.dcache.overallMshrMissRate::total     0.037747                       # mshr miss ratio for overall accesses (Ratio)
system.cpu.dcache.demandAvgMshrMissLatency::cpu.data 126341.491013                       # average overall mshr miss latency ((Tick/Count))
system.cpu.dcache.demandAvgMshrMissLatency::total 126341.491013                       # average overall mshr miss latency ((Tick/Count))
system.cpu.dcache.overallAvgMshrMissLatency::cpu.data 126341.491013                       # average overall mshr miss latency ((Tick/Count))
system.cpu.dcache.overallAvgMshrMissLatency::total 126341.491013                       # average overall mshr miss latency ((Tick/Count))
system.cpu.dcache.replacements                 124217                       # number of replacements (Count)
system.cpu.dcache.LoadLockedReq.hits::cpu.data            5                       # number of LoadLockedReq hits (Count)
system.cpu.dcache.LoadLockedReq.hits::total            5                       # number of LoadLockedReq hits (Count)
system.cpu.dcache.LoadLockedReq.misses::cpu.data            2                       # number of LoadLockedReq misses (Count)
system.cpu.dcache.LoadLockedReq.misses::total            2                       # number of LoadLockedReq misses (Count)
system.cpu.dcache.LoadLockedReq.missLatency::cpu.data       237000                       # number of LoadLockedReq miss ticks (Tick)
system.cpu.dcache.LoadLockedReq.missLatency::total       237000                       # number of LoadLockedReq miss ticks (Tick)
system.cpu.dcache.LoadLockedReq.accesses::cpu.data            7                       # number of LoadLockedReq accesses(hits+misses) (Count)
system.cpu.dcache.LoadLockedReq.accesses::total            7                       # number of LoadLockedReq accesses(hits+misses) (Count)
system.cpu.dcache.LoadLockedReq.missRate::cpu.data     0.285714                       # miss rate for LoadLockedReq accesses (Ratio)
system.cpu.dcache.LoadLockedReq.missRate::total     0.285714                       # miss rate for LoadLockedReq accesses (Ratio)
system.cpu.dcache.LoadLockedReq.avgMissLatency::cpu.data       118500                       # average LoadLockedReq miss latency ((Tick/Count))
system.cpu.dcache.LoadLockedReq.avgMissLatency::total       118500                       # average LoadLockedReq miss latency ((Tick/Count))
system.cpu.dcache.LoadLockedReq.mshrMisses::cpu.data            2                       # number of LoadLockedReq MSHR misses (Count)
system.cpu.dcache.LoadLockedReq.mshrMisses::total            2                       # number of LoadLockedReq MSHR misses (Count)
system.cpu.dcache.LoadLockedReq.mshrMissLatency::cpu.data       233000                       # number of LoadLockedReq MSHR miss ticks (Tick)
system.cpu.dcache.LoadLockedReq.mshrMissLatency::total       233000                       # number of LoadLockedReq MSHR miss ticks (Tick)
system.cpu.dcache.LoadLockedReq.mshrMissRate::cpu.data     0.285714                       # mshr miss rate for LoadLockedReq accesses (Ratio)
system.cpu.dcache.LoadLockedReq.mshrMissRate::total     0.285714                       # mshr miss rate for LoadLockedReq accesses (Ratio)
system.cpu.dcache.LoadLockedReq.avgMshrMissLatency::cpu.data       116500                       # average LoadLockedReq mshr miss latency ((Tick/Count))
system.cpu.dcache.LoadLockedReq.avgMshrMissLatency::total       116500                       # average LoadLockedReq mshr miss latency ((Tick/Count))
system.cpu.dcache.ReadReq.hits::cpu.data       191499                       # number of ReadReq hits (Count)
system.cpu.dcache.ReadReq.hits::total          191499                       # number of ReadReq hits (Count)
system.cpu.dcache.ReadReq.misses::cpu.data        62754                       # number of ReadReq misses (Count)
system.cpu.dcache.ReadReq.misses::total         62754                       # number of ReadReq misses (Count)
system.cpu.dcache.ReadReq.missLatency::cpu.data   8127677000                       # number of ReadReq miss ticks (Tick)
system.cpu.dcache.ReadReq.missLatency::total   8127677000                       # number of ReadReq miss ticks (Tick)
system.cpu.dcache.ReadReq.accesses::cpu.data       254253                       # number of ReadReq accesses(hits+misses) (Count)
system.cpu.dcache.ReadReq.accesses::total       254253                       # number of ReadReq accesses(hits+misses) (Count)
system.cpu.dcache.ReadReq.missRate::cpu.data     0.246817                       # miss rate for ReadReq accesses (Ratio)
system.cpu.dcache.ReadReq.missRate::total     0.246817                       # miss rate for ReadReq accesses (Ratio)
system.cpu.dcache.ReadReq.avgMissLatency::cpu.data 129516.477037                       # average ReadReq miss latency ((Tick/Count))
system.cpu.dcache.ReadReq.avgMissLatency::total 129516.477037                       # average ReadReq miss latency ((Tick/Count))
system.cpu.dcache.ReadReq.mshrHits::cpu.data          142                       # number of ReadReq MSHR hits (Count)
system.cpu.dcache.ReadReq.mshrHits::total          142                       # number of ReadReq MSHR hits (Count)
system.cpu.dcache.ReadReq.mshrMisses::cpu.data        62612                       # number of ReadReq MSHR misses (Count)
system.cpu.dcache.ReadReq.mshrMisses::total        62612                       # number of ReadReq MSHR misses (Count)
system.cpu.dcache.ReadReq.mshrMissLatency::cpu.data   7990730000                       # number of ReadReq MSHR miss ticks (Tick)
system.cpu.dcache.ReadReq.mshrMissLatency::total   7990730000                       # number of ReadReq MSHR miss ticks (Tick)
system.cpu.dcache.ReadReq.mshrMissRate::cpu.data     0.246259                       # mshr miss rate for ReadReq accesses (Ratio)
system.cpu.dcache.ReadReq.mshrMissRate::total     0.246259                       # mshr miss rate for ReadReq accesses (Ratio)
system.cpu.dcache.ReadReq.avgMshrMissLatency::cpu.data 127622.979621                       # average ReadReq mshr miss latency ((Tick/Count))
system.cpu.dcache.ReadReq.avgMshrMissLatency::total 127622.979621                       # average ReadReq mshr miss latency ((Tick/Count))
system.cpu.dcache.StoreCondReq.hits::cpu.data            4                       # number of StoreCondReq hits (Count)
system.cpu.dcache.StoreCondReq.hits::total            4                       # number of StoreCondReq hits (Count)
system.cpu.dcache.StoreCondReq.accesses::cpu.data            4                       # number of StoreCondReq accesses(hits+misses) (Count)
system.cpu.dcache.StoreCondReq.accesses::total            4                       # number of StoreCondReq accesses(hits+misses) (Count)
system.cpu.dcache.SwapReq.hits::cpu.data            8                       # number of SwapReq hits (Count)
system.cpu.dcache.SwapReq.hits::total               8                       # number of SwapReq hits (Count)
system.cpu.dcache.SwapReq.accesses::cpu.data            8                       # number of SwapReq accesses(hits+misses) (Count)
system.cpu.dcache.SwapReq.accesses::total            8                       # number of SwapReq accesses(hits+misses) (Count)
system.cpu.dcache.WriteLineReq.misses::cpu.data            7                       # number of WriteLineReq misses (Count)
system.cpu.dcache.WriteLineReq.misses::total            7                       # number of WriteLineReq misses (Count)
system.cpu.dcache.WriteLineReq.missLatency::cpu.data       380997                       # number of WriteLineReq miss ticks (Tick)
system.cpu.dcache.WriteLineReq.missLatency::total       380997                       # number of WriteLineReq miss ticks (Tick)
system.cpu.dcache.WriteLineReq.accesses::cpu.data            7                       # number of WriteLineReq accesses(hits+misses) (Count)
system.cpu.dcache.WriteLineReq.accesses::total            7                       # number of WriteLineReq accesses(hits+misses) (Count)
system.cpu.dcache.WriteLineReq.missRate::cpu.data            1                       # miss rate for WriteLineReq accesses (Ratio)
system.cpu.dcache.WriteLineReq.missRate::total            1                       # miss rate for WriteLineReq accesses (Ratio)
system.cpu.dcache.WriteLineReq.avgMissLatency::cpu.data 54428.142857                       # average WriteLineReq miss latency ((Tick/Count))
system.cpu.dcache.WriteLineReq.avgMissLatency::total 54428.142857                       # average WriteLineReq miss latency ((Tick/Count))
system.cpu.dcache.WriteLineReq.mshrMisses::cpu.data            7                       # number of WriteLineReq MSHR misses (Count)
system.cpu.dcache.WriteLineReq.mshrMisses::total            7                       # number of WriteLineReq MSHR misses (Count)
system.cpu.dcache.WriteLineReq.mshrMissLatency::cpu.data       366997                       # number of WriteLineReq MSHR miss ticks (Tick)
system.cpu.dcache.WriteLineReq.mshrMissLatency::total       366997                       # number of WriteLineReq MSHR miss ticks (Tick)
system.cpu.dcache.WriteLineReq.mshrMissRate::cpu.data            1                       # mshr miss rate for WriteLineReq accesses (Ratio)
system.cpu.dcache.WriteLineReq.mshrMissRate::total            1                       # mshr miss rate for WriteLineReq accesses (Ratio)
system.cpu.dcache.WriteLineReq.avgMshrMissLatency::cpu.data 52428.142857                       # average WriteLineReq mshr miss latency ((Tick/Count))
system.cpu.dcache.WriteLineReq.avgMshrMissLatency::total 52428.142857                       # average WriteLineReq mshr miss latency ((Tick/Count))
system.cpu.dcache.WriteReq.hits::cpu.data      3000629                       # number of WriteReq hits (Count)
system.cpu.dcache.WriteReq.hits::total        3000629                       # number of WriteReq hits (Count)
system.cpu.dcache.WriteReq.misses::cpu.data        62980                       # number of WriteReq misses (Count)
system.cpu.dcache.WriteReq.misses::total        62980                       # number of WriteReq misses (Count)
system.cpu.dcache.WriteReq.missLatency::cpu.data   7986363971                       # number of WriteReq miss ticks (Tick)
system.cpu.dcache.WriteReq.missLatency::total   7986363971                       # number of WriteReq miss ticks (Tick)
system.cpu.dcache.WriteReq.accesses::cpu.data      3063609                       # number of WriteReq accesses(hits+misses) (Count)
system.cpu.dcache.WriteReq.accesses::total      3063609                       # number of WriteReq accesses(hits+misses) (Count)
system.cpu.dcache.WriteReq.missRate::cpu.data     0.020557                       # miss rate for WriteReq accesses (Ratio)
system.cpu.dcache.WriteReq.missRate::total     0.020557                       # miss rate for WriteReq accesses (Ratio)
system.cpu.dcache.WriteReq.avgMissLatency::cpu.data 126807.938568                       # average WriteReq miss latency ((Tick/Count))
system.cpu.dcache.WriteReq.avgMissLatency::total 126807.938568                       # average WriteReq miss latency ((Tick/Count))
system.cpu.dcache.WriteReq.mshrHits::cpu.data          360                       # number of WriteReq MSHR hits (Count)
system.cpu.dcache.WriteReq.mshrHits::total          360                       # number of WriteReq MSHR hits (Count)
system.cpu.dcache.WriteReq.mshrMisses::cpu.data        62620                       # number of WriteReq MSHR misses (Count)
system.cpu.dcache.WriteReq.mshrMisses::total        62620                       # number of WriteReq MSHR misses (Count)
system.cpu.dcache.WriteReq.mshrMissLatency::cpu.data   7831784996                       # number of WriteReq MSHR miss ticks (Tick)
system.cpu.dcache.WriteReq.mshrMissLatency::total   7831784996                       # number of WriteReq MSHR miss ticks (Tick)
system.cpu.dcache.WriteReq.mshrMissRate::cpu.data     0.020440                       # mshr miss rate for WriteReq accesses (Ratio)
system.cpu.dcache.WriteReq.mshrMissRate::total     0.020440                       # mshr miss rate for WriteReq accesses (Ratio)
system.cpu.dcache.WriteReq.avgMshrMissLatency::cpu.data 125068.428553                       # average WriteReq mshr miss latency ((Tick/Count))
system.cpu.dcache.WriteReq.avgMshrMissLatency::total 125068.428553                       # average WriteReq mshr miss latency ((Tick/Count))
system.cpu.dcache.power_state.pwrStateResidencyTicks::UNDEFINED  18572465000                       # Cumulative time (in ticks) in various power states (Tick)
system.cpu.dcache.tags.tagsInUse          1019.239081                       # Average ticks per tags in use ((Tick/Count))
system.cpu.dcache.tags.totalRefs              3317386                       # Total number of references to valid blocks. (Count)
system.cpu.dcache.tags.sampledRefs             125241                       # Sample count of references to valid blocks. (Count)
system.cpu.dcache.tags.avgRefs              26.488019                       # Average number of references to valid blocks. ((Count/Count))
system.cpu.dcache.tags.warmupTick              222000                       # The tick when the warmup percentage was hit. (Tick)
system.cpu.dcache.tags.occupancies::cpu.data  1019.239081                       # Average occupied blocks per tick, per requestor ((Count/Tick))
system.cpu.dcache.tags.avgOccs::cpu.data     0.995351                       # Average percentage of cache occupancy ((Ratio/Tick))
system.cpu.dcache.tags.avgOccs::total        0.995351                       # Average percentage of cache occupancy ((Ratio/Tick))
system.cpu.dcache.tags.occupanciesTaskId::1024         1024                       # Occupied blocks per task id (Count)
system.cpu.dcache.tags.ageTaskId_1024::0           83                       # Occupied blocks per task id, per block age (Count)
system.cpu.dcache.tags.ageTaskId_1024::1          571                       # Occupied blocks per task id, per block age (Count)
system.cpu.dcache.tags.ageTaskId_1024::2          369                       # Occupied blocks per task id, per block age (Count)
system.cpu.dcache.tags.ageTaskId_1024::4            1                       # Occupied blocks per task id, per block age (Count)
system.cpu.dcache.tags.ratioOccsTaskId::1024            1                       # Ratio of occupied blocks and all blocks, per task id (Ratio)
system.cpu.dcache.tags.tagAccesses            6761017                       # Number of tag accesses (Count)
system.cpu.dcache.tags.dataAccesses           6761017                       # Number of data accesses (Count)
system.cpu.dcache.tags.power_state.pwrStateResidencyTicks::UNDEFINED  18572465000                       # Cumulative time (in ticks) in various power states (Tick)
system.cpu.decode.idleCycles                   417553                       # Number of cycles decode is idle (Cycle)
system.cpu.decode.blockedCycles              16627599                       # Number of cycles decode is blocked (Cycle)
system.cpu.decode.runCycles                    849226                       # Number of cycles decode is running (Cycle)
system.cpu.decode.unblockCycles                660661                       # Number of cycles decode is unblocking (Cycle)
system.cpu.decode.squashCycles                   1719                       # Number of cycles decode is squashing (Cycle)
system.cpu.decode.branchResolved                63947                       # Number of times decode resolved a branch (Count)
system.cpu.decode.branchMispred                   193                       # Number of times decode detected a branch misprediction (Count)
system.cpu.decode.decodedInsts               11693893                       # Number of instructions handled by decode (Count)
system.cpu.decode.squashedInsts                   809                       # Number of squashed instructions handled by decode (Count)
system.cpu.fetch.icacheStallCycles             830291                       # Number of cycles fetch is stalled on an Icache miss (Cycle)
system.cpu.fetch.insts                       11715017                       # Number of instructions fetch has processed (Count)
system.cpu.fetch.branches                       66510                       # Number of branches that fetch encountered (Count)
system.cpu.fetch.predictedBranches              64172                       # Number of branches that fetch has predicted taken (Count)
system.cpu.fetch.cycles                      17724556                       # Number of cycles fetch has run and was not squashing or blocked (Cycle)
system.cpu.fetch.squashCycles                    3822                       # Number of cycles fetch has spent squashing (Cycle)
system.cpu.fetch.cacheLines                    821275                       # Number of cache lines fetched (Count)
system.cpu.fetch.icacheSquashes                   809                       # Number of outstanding Icache misses that were squashed (Count)
system.cpu.fetch.nisnDist::samples           18556758                       # Number of instructions fetched each cycle (Total) (Count)
system.cpu.fetch.nisnDist::mean              0.631431                       # Number of instructions fetched each cycle (Total) (Count)
system.cpu.fetch.nisnDist::stdev             2.139220                       # Number of instructions fetched each cycle (Total) (Count)
system.cpu.fetch.nisnDist::underflows               0      0.00%      0.00% # Number of instructions fetched each cycle (Total) (Count)
system.cpu.fetch.nisnDist::0                 17043379     91.84%     91.84% # Number of instructions fetched each cycle (Total) (Count)
system.cpu.fetch.nisnDist::1                      545      0.00%     91.85% # Number of instructions fetched each cycle (Total) (Count)
system.cpu.fetch.nisnDist::2                      410      0.00%     91.85% # Number of instructions fetched each cycle (Total) (Count)
system.cpu.fetch.nisnDist::3                    63175      0.34%     92.19% # Number of instructions fetched each cycle (Total) (Count)
system.cpu.fetch.nisnDist::4                      581      0.00%     92.19% # Number of instructions fetched each cycle (Total) (Count)
system.cpu.fetch.nisnDist::5                      338      0.00%     92.20% # Number of instructions fetched each cycle (Total) (Count)
system.cpu.fetch.nisnDist::6                      507      0.00%     92.20% # Number of instructions fetched each cycle (Total) (Count)
system.cpu.fetch.nisnDist::7                    63212      0.34%     92.54% # Number of instructions fetched each cycle (Total) (Count)
system.cpu.fetch.nisnDist::8                  1384611      7.46%    100.00% # Number of instructions fetched each cycle (Total) (Count)
system.cpu.fetch.nisnDist::overflows                0      0.00%    100.00% # Number of instructions fetched each cycle (Total) (Count)
system.cpu.fetch.nisnDist::min_value                0                       # Number of instructions fetched each cycle (Total) (Count)
system.cpu.fetch.nisnDist::max_value                8                       # Number of instructions fetched each cycle (Total) (Count)
system.cpu.fetch.nisnDist::total             18556758                       # Number of instructions fetched each cycle (Total) (Count)
system.cpu.fetch.branchRate                  0.003581                       # Number of branch fetches per cycle (Ratio)
system.cpu.fetch.rate                        0.630773                       # Number of inst fetches per cycle ((Count/Cycle))
system.cpu.icache.demandHits::cpu.inst         820754                       # number of demand (read+write) hits (Count)
system.cpu.icache.demandHits::total            820754                       # number of demand (read+write) hits (Count)
system.cpu.icache.overallHits::cpu.inst        820754                       # number of overall hits (Count)
system.cpu.icache.overallHits::total           820754                       # number of overall hits (Count)
system.cpu.icache.demandMisses::cpu.inst          521                       # number of demand (read+write) misses (Count)
system.cpu.icache.demandMisses::total             521                       # number of demand (read+write) misses (Count)
system.cpu.icache.overallMisses::cpu.inst          521                       # number of overall misses (Count)
system.cpu.icache.overallMisses::total            521                       # number of overall misses (Count)
system.cpu.icache.demandMissLatency::cpu.inst     48486000                       # number of demand (read+write) miss ticks (Tick)
system.cpu.icache.demandMissLatency::total     48486000                       # number of demand (read+write) miss ticks (Tick)
system.cpu.icache.overallMissLatency::cpu.inst     48486000                       # number of overall miss ticks (Tick)
system.cpu.icache.overallMissLatency::total     48486000                       # number of overall miss ticks (Tick)
system.cpu.icache.demandAccesses::cpu.inst       821275                       # number of demand (read+write) accesses (Count)
system.cpu.icache.demandAccesses::total        821275                       # number of demand (read+write) accesses (Count)
system.cpu.icache.overallAccesses::cpu.inst       821275                       # number of overall (read+write) accesses (Count)
system.cpu.icache.overallAccesses::total       821275                       # number of overall (read+write) accesses (Count)
system.cpu.icache.demandMissRate::cpu.inst     0.000634                       # miss rate for demand accesses (Ratio)
system.cpu.icache.demandMissRate::total      0.000634                       # miss rate for demand accesses (Ratio)
system.cpu.icache.overallMissRate::cpu.inst     0.000634                       # miss rate for overall accesses (Ratio)
system.cpu.icache.overallMissRate::total     0.000634                       # miss rate for overall accesses (Ratio)
system.cpu.icache.demandAvgMissLatency::cpu.inst 93063.339731                       # average overall miss latency in ticks ((Tick/Count))
system.cpu.icache.demandAvgMissLatency::total 93063.339731                       # average overall miss latency in ticks ((Tick/Count))
system.cpu.icache.overallAvgMissLatency::cpu.inst 93063.339731                       # average overall miss latency ((Tick/Count))
system.cpu.icache.overallAvgMissLatency::total 93063.339731                       # average overall miss latency ((Tick/Count))
system.cpu.icache.blockedCycles::no_mshrs          144                       # number of cycles access was blocked (Cycle)
system.cpu.icache.blockedCycles::no_targets            0                       # number of cycles access was blocked (Cycle)
system.cpu.icache.blockedCauses::no_mshrs            3                       # number of times access was blocked (Count)
system.cpu.icache.blockedCauses::no_targets            0                       # number of times access was blocked (Count)
system.cpu.icache.avgBlocked::no_mshrs             48                       # average number of cycles each access was blocked ((Cycle/Count))
system.cpu.icache.avgBlocked::no_targets          nan                       # average number of cycles each access was blocked ((Cycle/Count))
system.cpu.icache.demandMshrHits::cpu.inst          148                       # number of demand (read+write) MSHR hits (Count)
system.cpu.icache.demandMshrHits::total           148                       # number of demand (read+write) MSHR hits (Count)
system.cpu.icache.overallMshrHits::cpu.inst          148                       # number of overall MSHR hits (Count)
system.cpu.icache.overallMshrHits::total          148                       # number of overall MSHR hits (Count)
system.cpu.icache.demandMshrMisses::cpu.inst          373                       # number of demand (read+write) MSHR misses (Count)
system.cpu.icache.demandMshrMisses::total          373                       # number of demand (read+write) MSHR misses (Count)
system.cpu.icache.overallMshrMisses::cpu.inst          373                       # number of overall MSHR misses (Count)
system.cpu.icache.overallMshrMisses::total          373                       # number of overall MSHR misses (Count)
system.cpu.icache.demandMshrMissLatency::cpu.inst     37526000                       # number of demand (read+write) MSHR miss ticks (Tick)
system.cpu.icache.demandMshrMissLatency::total     37526000                       # number of demand (read+write) MSHR miss ticks (Tick)
system.cpu.icache.overallMshrMissLatency::cpu.inst     37526000                       # number of overall MSHR miss ticks (Tick)
system.cpu.icache.overallMshrMissLatency::total     37526000                       # number of overall MSHR miss ticks (Tick)
system.cpu.icache.demandMshrMissRate::cpu.inst     0.000454                       # mshr miss ratio for demand accesses (Ratio)
system.cpu.icache.demandMshrMissRate::total     0.000454                       # mshr miss ratio for demand accesses (Ratio)
system.cpu.icache.overallMshrMissRate::cpu.inst     0.000454                       # mshr miss ratio for overall accesses (Ratio)
system.cpu.icache.overallMshrMissRate::total     0.000454                       # mshr miss ratio for overall accesses (Ratio)
system.cpu.icache.demandAvgMshrMissLatency::cpu.inst 100605.898123                       # average overall mshr miss latency ((Tick/Count))
system.cpu.icache.demandAvgMshrMissLatency::total 100605.898123                       # average overall mshr miss latency ((Tick/Count))
system.cpu.icache.overallAvgMshrMissLatency::cpu.inst 100605.898123                       # average overall mshr miss latency ((Tick/Count))
system.cpu.icache.overallAvgMshrMissLatency::total 100605.898123                       # average overall mshr miss latency ((Tick/Count))
system.cpu.icache.replacements                    138                       # number of replacements (Count)
system.cpu.icache.ReadReq.hits::cpu.inst       820754                       # number of ReadReq hits (Count)
system.cpu.icache.ReadReq.hits::total          820754                       # number of ReadReq hits (Count)
system.cpu.icache.ReadReq.misses::cpu.inst          521                       # number of ReadReq misses (Count)
system.cpu.icache.ReadReq.misses::total           521                       # number of ReadReq misses (Count)
system.cpu.icache.ReadReq.missLatency::cpu.inst     48486000                       # number of ReadReq miss ticks (Tick)
system.cpu.icache.ReadReq.missLatency::total     48486000                       # number of ReadReq miss ticks (Tick)
system.cpu.icache.ReadReq.accesses::cpu.inst       821275                       # number of ReadReq accesses(hits+misses) (Count)
system.cpu.icache.ReadReq.accesses::total       821275                       # number of ReadReq accesses(hits+misses) (Count)
system.cpu.icache.ReadReq.missRate::cpu.inst     0.000634                       # miss rate for ReadReq accesses (Ratio)
system.cpu.icache.ReadReq.missRate::total     0.000634                       # miss rate for ReadReq accesses (Ratio)
system.cpu.icache.ReadReq.avgMissLatency::cpu.inst 93063.339731                       # average ReadReq miss latency ((Tick/Count))
system.cpu.icache.ReadReq.avgMissLatency::total 93063.339731                       # average ReadReq miss latency ((Tick/Count))
system.cpu.icache.ReadReq.mshrHits::cpu.inst          148                       # number of ReadReq MSHR hits (Count)
system.cpu.icache.ReadReq.mshrHits::total          148                       # number of ReadReq MSHR hits (Count)
system.cpu.icache.ReadReq.mshrMisses::cpu.inst          373                       # number of ReadReq MSHR misses (Count)
system.cpu.icache.ReadReq.mshrMisses::total          373                       # number of ReadReq MSHR misses (Count)
system.cpu.icache.ReadReq.mshrMissLatency::cpu.inst     37526000                       # number of ReadReq MSHR miss ticks (Tick)
system.cpu.icache.ReadReq.mshrMissLatency::total     37526000                       # number of ReadReq MSHR miss ticks (Tick)
system.cpu.icache.ReadReq.mshrMissRate::cpu.inst     0.000454                       # mshr miss rate for ReadReq accesses (Ratio)
system.cpu.icache.ReadReq.mshrMissRate::total     0.000454                       # mshr miss rate for ReadReq accesses (Ratio)
system.cpu.icache.ReadReq.avgMshrMissLatency::cpu.inst 100605.898123                       # average ReadReq mshr miss latency ((Tick/Count))
system.cpu.icache.ReadReq.avgMshrMissLatency::total 100605.898123                       # average ReadReq mshr miss latency ((Tick/Count))
system.cpu.icache.power_state.pwrStateResidencyTicks::UNDEFINED  18572465000                       # Cumulative time (in ticks) in various power states (Tick)
system.cpu.icache.tags.tagsInUse           207.885799                       # Average ticks per tags in use ((Tick/Count))
system.cpu.icache.tags.totalRefs               821125                       # Total number of references to valid blocks. (Count)
system.cpu.icache.tags.sampledRefs                371                       # Sample count of references to valid blocks. (Count)
system.cpu.icache.tags.avgRefs            2213.274933                       # Average number of references to valid blocks. ((Count/Count))
system.cpu.icache.tags.warmupTick              107000                       # The tick when the warmup percentage was hit. (Tick)
system.cpu.icache.tags.occupancies::cpu.inst   207.885799                       # Average occupied blocks per tick, per requestor ((Count/Tick))
system.cpu.icache.tags.avgOccs::cpu.inst     0.812054                       # Average percentage of cache occupancy ((Ratio/Tick))
system.cpu.icache.tags.avgOccs::total        0.812054                       # Average percentage of cache occupancy ((Ratio/Tick))
system.cpu.icache.tags.occupanciesTaskId::1024          233                       # Occupied blocks per task id (Count)
system.cpu.icache.tags.ageTaskId_1024::0           44                       # Occupied blocks per task id, per block age (Count)
system.cpu.icache.tags.ageTaskId_1024::4          189                       # Occupied blocks per task id, per block age (Count)
system.cpu.icache.tags.ratioOccsTaskId::1024     0.910156                       # Ratio of occupied blocks and all blocks, per task id (Ratio)
system.cpu.icache.tags.tagAccesses            1642921                       # Number of tag accesses (Count)
system.cpu.icache.tags.dataAccesses           1642921                       # Number of data accesses (Count)
system.cpu.icache.tags.power_state.pwrStateResidencyTicks::UNDEFINED  18572465000                       # Cumulative time (in ticks) in various power states (Tick)
system.cpu.iew.idleCycles                           0                       # Number of cycles IEW is idle (Cycle)
system.cpu.iew.squashCycles                      1719                       # Number of cycles IEW is squashing (Cycle)
system.cpu.iew.blockCycles                     112560                       # Number of cycles IEW is blocking (Cycle)
system.cpu.iew.unblockCycles                   514742                       # Number of cycles IEW is unblocking (Cycle)
system.cpu.iew.dispatchedInsts               11675207                       # Number of instructions dispatched to IQ (Count)
system.cpu.iew.dispSquashedInsts                   80                       # Number of squashed instructions skipped by dispatch (Count)
system.cpu.iew.dispLoadInsts                  3324883                       # Number of dispatched load instructions (Count)
system.cpu.iew.dispStoreInsts                 3073745                       # Number of dispatched store instructions (Count)
system.cpu.iew.dispNonSpecInsts                    71                       # Number of dispatched non-speculative instructions (Count)
system.cpu.iew.iqFullEvents                     10165                       # Number of times the IQ has become full, causing a stall (Count)
system.cpu.iew.lsqFullEvents                   447346                       # Number of times the LSQ has become full, causing a stall (Count)
system.cpu.iew.memOrderViolationEvents           1818                       # Number of memory order violations (Count)
system.cpu.iew.predictedTakenIncorrect             55                       # Number of branches that were predicted taken incorrectly (Count)
system.cpu.iew.predictedNotTakenIncorrect          330                       # Number of branches that were predicted not taken incorrectly (Count)
system.cpu.iew.branchMispredicts                  385                       # Number of branch mispredicts detected at execute (Count)
system.cpu.iew.instsToCommit                 11648423                       # Cumulative count of insts sent to commit (Count)
system.cpu.iew.writebackCount                11647340                       # Cumulative count of insts written-back (Count)
system.cpu.iew.producerInst                   8378677                       # Number of instructions producing a value (Count)
system.cpu.iew.consumerInst                   9884989                       # Number of instructions consuming a value (Count)
system.cpu.iew.wbRate                        0.627129                       # Insts written-back per cycle ((Count/Cycle))
system.cpu.iew.wbFanout                      0.847616                       # Average fanout of values written-back ((Count/Count))
system.cpu.lsq0.forwLoads                     3063585                       # Number of loads that had data forwarded from stores (Count)
system.cpu.lsq0.squashedLoads                   11514                       # Number of loads squashed (Count)
system.cpu.lsq0.ignoredResponses                   67                       # Number of memory responses ignored because the instruction is squashed (Count)
system.cpu.lsq0.memOrderViolation                1818                       # Number of memory ordering violations (Count)
system.cpu.lsq0.squashedStores                  10118                       # Number of stores squashed (Count)
system.cpu.lsq0.rescheduledLoads                   16                       # Number of loads that were rescheduled (Count)
system.cpu.lsq0.blockedByCache                     67                       # Number of times an access to memory failed due to the cache being blocked (Count)
system.cpu.lsq0.loadToUse::samples            3313369                       # Distribution of cycle latency between the first time a load is issued and its completion (Unspecified)
system.cpu.lsq0.loadToUse::mean              4.487921                       # Distribution of cycle latency between the first time a load is issued and its completion (Unspecified)
system.cpu.lsq0.loadToUse::stdev            18.010511                       # Distribution of cycle latency between the first time a load is issued and its completion (Unspecified)
system.cpu.lsq0.loadToUse::0-9                3250742     98.11%     98.11% # Distribution of cycle latency between the first time a load is issued and its completion (Unspecified)
system.cpu.lsq0.loadToUse::10-19                    8      0.00%     98.11% # Distribution of cycle latency between the first time a load is issued and its completion (Unspecified)
[...]
system.mem_ctrl.dram.bytesWritten::writebacks      3875712                       # Number of bytes written to this memory (Byte)
system.mem_ctrl.dram.bytesWritten::total      3875712                       # Number of bytes written to this memory (Byte)
system.mem_ctrl.dram.numReads::cpu.inst           359                       # Number of read requests responded to by this memory (Count)
system.mem_ctrl.dram.numReads::cpu.data        125223                       # Number of read requests responded to by this memory (Count)
system.mem_ctrl.dram.numReads::total           125582                       # Number of read requests responded to by this memory (Count)
system.mem_ctrl.dram.numWrites::writebacks        60558                       # Number of write requests responded to by this memory (Count)
system.mem_ctrl.dram.numWrites::total           60558                       # Number of write requests responded to by this memory (Count)
system.mem_ctrl.dram.bwRead::cpu.inst         1237100                       # Total read bandwidth from this memory ((Byte/Second))
system.mem_ctrl.dram.bwRead::cpu.data       431513641                       # Total read bandwidth from this memory ((Byte/Second))
system.mem_ctrl.dram.bwRead::total          432750741                       # Total read bandwidth from this memory ((Byte/Second))
system.mem_ctrl.dram.bwInstRead::cpu.inst      1237100                       # Instruction read bandwidth from this memory ((Byte/Second))
system.mem_ctrl.dram.bwInstRead::total        1237100                       # Instruction read bandwidth from this memory ((Byte/Second))
system.mem_ctrl.dram.bwWrite::writebacks    208680539                       # Write bandwidth from this memory ((Byte/Second))
system.mem_ctrl.dram.bwWrite::total         208680539                       # Write bandwidth from this memory ((Byte/Second))
system.mem_ctrl.dram.bwTotal::writebacks    208680539                       # Total bandwidth to/from this memory ((Byte/Second))
system.mem_ctrl.dram.bwTotal::cpu.inst        1237100                       # Total bandwidth to/from this memory ((Byte/Second))
system.mem_ctrl.dram.bwTotal::cpu.data      431513641                       # Total bandwidth to/from this memory ((Byte/Second))
system.mem_ctrl.dram.bwTotal::total         641431280                       # Total bandwidth to/from this memory ((Byte/Second))
system.mem_ctrl.dram.readBursts                125584                       # Number of DRAM read bursts (Count)
system.mem_ctrl.dram.writeBursts                60540                       # Number of DRAM write bursts (Count)
system.mem_ctrl.dram.perBankRdBursts::0          8067                       # Per bank write bursts (Count)
system.mem_ctrl.dram.perBankRdBursts::1          8008                       # Per bank write bursts (Count)
system.mem_ctrl.dram.perBankRdBursts::2          7963                       # Per bank write bursts (Count)
system.mem_ctrl.dram.perBankRdBursts::3          7950                       # Per bank write bursts (Count)
system.mem_ctrl.dram.perBankRdBursts::4          7958                       # Per bank write bursts (Count)
system.mem_ctrl.dram.perBankRdBursts::5          8762                       # Per bank write bursts (Count)
system.mem_ctrl.dram.perBankRdBursts::6          6959                       # Per bank write bursts (Count)
system.mem_ctrl.dram.perBankRdBursts::7          7687                       # Per bank write bursts (Count)
system.mem_ctrl.dram.perBankRdBursts::8          7719                       # Per bank write bursts (Count)
system.mem_ctrl.dram.perBankRdBursts::9          7720                       # Per bank write bursts (Count)
system.mem_ctrl.dram.perBankRdBursts::10         7683                       # Per bank write bursts (Count)
system.mem_ctrl.dram.perBankRdBursts::11         7715                       # Per bank write bursts (Count)
system.mem_ctrl.dram.perBankRdBursts::12         7694                       # Per bank write bursts (Count)
system.mem_ctrl.dram.perBankRdBursts::13         7741                       # Per bank write bursts (Count)
system.mem_ctrl.dram.perBankRdBursts::14         7990                       # Per bank write bursts (Count)
system.mem_ctrl.dram.perBankRdBursts::15         7968                       # Per bank write bursts (Count)
system.mem_ctrl.dram.perBankWrBursts::0          3847                       # Per bank write bursts (Count)
system.mem_ctrl.dram.perBankWrBursts::1          3884                       # Per bank write bursts (Count)
system.mem_ctrl.dram.perBankWrBursts::2          3849                       # Per bank write bursts (Count)
system.mem_ctrl.dram.perBankWrBursts::3          3840                       # Per bank write bursts (Count)
system.mem_ctrl.dram.perBankWrBursts::4          3853                       # Per bank write bursts (Count)
system.mem_ctrl.dram.perBankWrBursts::5          4595                       # Per bank write bursts (Count)
system.mem_ctrl.dram.perBankWrBursts::6          3022                       # Per bank write bursts (Count)
system.mem_ctrl.dram.perBankWrBursts::7          3712                       # Per bank write bursts (Count)
system.mem_ctrl.dram.perBankWrBursts::8          3712                       # Per bank write bursts (Count)
system.mem_ctrl.dram.perBankWrBursts::9          3712                       # Per bank write bursts (Count)
system.mem_ctrl.dram.perBankWrBursts::10         3712                       # Per bank write bursts (Count)
system.mem_ctrl.dram.perBankWrBursts::11         3713                       # Per bank write bursts (Count)
system.mem_ctrl.dram.perBankWrBursts::12         3714                       # Per bank write bursts (Count)
system.mem_ctrl.dram.perBankWrBursts::13         3741                       # Per bank write bursts (Count)
system.mem_ctrl.dram.perBankWrBursts::14         3794                       # Per bank write bursts (Count)
system.mem_ctrl.dram.perBankWrBursts::15         3840                       # Per bank write bursts (Count)
system.mem_ctrl.dram.totQLat               4121234750                       # Total ticks spent queuing (Tick)
system.mem_ctrl.dram.totBusLat              627920000                       # Total ticks spent in databus transfers (Tick)
system.mem_ctrl.dram.totMemAccLat          6475934750                       # Total ticks spent from burst creation until serviced by the DRAM (Tick)
system.mem_ctrl.dram.avgQLat                 32816.56                       # Average queueing delay per DRAM burst ((Tick/Count))
system.mem_ctrl.dram.avgBusLat                5000.00                       # Average bus latency per DRAM burst ((Tick/Count))
system.mem_ctrl.dram.avgMemAccLat            51566.56                       # Average memory access latency per DRAM burst ((Tick/Count))
system.mem_ctrl.dram.readRowHits                 1855                       # Number of row buffer hits during reads (Count)
system.mem_ctrl.dram.writeRowHits               55940                       # Number of row buffer hits during writes (Count)
system.mem_ctrl.dram.readRowHitRate              1.48                       # Row buffer hit rate for reads (Ratio)
system.mem_ctrl.dram.writeRowHitRate            92.40                       # Row buffer hit rate for writes (Ratio)
system.mem_ctrl.dram.bytesPerActivate::samples       128320                       # Bytes accessed per row activation (Byte)
system.mem_ctrl.dram.bytesPerActivate::mean    92.811970                       # Bytes accessed per row activation (Byte)
system.mem_ctrl.dram.bytesPerActivate::gmean    70.043742                       # Bytes accessed per row activation (Byte)
system.mem_ctrl.dram.bytesPerActivate::stdev   158.129889                       # Bytes accessed per row activation (Byte)
system.mem_ctrl.dram.bytesPerActivate::0-127       123670     96.38%     96.38% # Bytes accessed per row activation (Byte)
system.mem_ctrl.dram.bytesPerActivate::128-255          311      0.24%     96.62% # Bytes accessed per row activation (Byte)
system.mem_ctrl.dram.bytesPerActivate::256-383          184      0.14%     96.76% # Bytes accessed per row activation (Byte)
system.mem_ctrl.dram.bytesPerActivate::384-511          192      0.15%     96.91% # Bytes accessed per row activation (Byte)
system.mem_ctrl.dram.bytesPerActivate::512-639          226      0.18%     97.09% # Bytes accessed per row activation (Byte)
system.mem_ctrl.dram.bytesPerActivate::640-767          187      0.15%     97.23% # Bytes accessed per row activation (Byte)
system.mem_ctrl.dram.bytesPerActivate::768-895          187      0.15%     97.38% # Bytes accessed per row activation (Byte)
system.mem_ctrl.dram.bytesPerActivate::896-1023          223      0.17%     97.55% # Bytes accessed per row activation (Byte)
system.mem_ctrl.dram.bytesPerActivate::1024-1151         3140      2.45%    100.00% # Bytes accessed per row activation (Byte)
system.mem_ctrl.dram.bytesPerActivate::total       128320                       # Bytes accessed per row activation (Byte)
system.mem_ctrl.dram.bytesRead                8037376                       # Total bytes read (Byte)
system.mem_ctrl.dram.bytesWritten             3874560                       # Total bytes written (Byte)
system.mem_ctrl.dram.avgRdBW               432.757633                       # Average DRAM read bandwidth in MiBytes/s ((Byte/Second))
system.mem_ctrl.dram.avgWrBW               208.618511                       # Average DRAM write bandwidth in MiBytes/s ((Byte/Second))
system.mem_ctrl.dram.peakBW                  12800.00                       # Theoretical peak bandwidth in MiByte/s ((Byte/Second))
system.mem_ctrl.dram.busUtil                     5.01                       # Data bus utilization in percentage (Ratio)
system.mem_ctrl.dram.busUtilRead                 3.38                       # Data bus utilization in percentage for reads (Ratio)
system.mem_ctrl.dram.busUtilWrite                1.63                       # Data bus utilization in percentage for writes (Ratio)
system.mem_ctrl.dram.pageHitRate                31.05                       # Row buffer hit rate, read and write combined (Ratio)
system.mem_ctrl.dram.power_state.pwrStateResidencyTicks::UNDEFINED  18572465000                       # Cumulative time (in ticks) in various power states (Tick)
system.mem_ctrl.dram.rank0.actEnergy        456974280                       # Energy for activate commands per rank (pJ) (Joule)
system.mem_ctrl.dram.rank0.preEnergy        242864820                       # Energy for precharge commands per rank (pJ) (Joule)
system.mem_ctrl.dram.rank0.readEnergy       452340420                       # Energy for read commands per rank (pJ) (Joule)
system.mem_ctrl.dram.rank0.writeEnergy      159742440                       # Energy for write commands per rank (pJ) (Joule)
system.mem_ctrl.dram.rank0.refreshEnergy 1465916400.000000                       # Energy for refresh commands per rank (pJ) (Joule)
system.mem_ctrl.dram.rank0.actBackEnergy   4343691840                       # Energy for active background per rank (pJ) (Joule)
system.mem_ctrl.dram.rank0.preBackEnergy   3473980800                       # Energy for precharge background per rank (pJ) (Joule)
system.mem_ctrl.dram.rank0.actPowerDownEnergy            0                       # Energy for active power-down per rank (pJ) (Joule)
system.mem_ctrl.dram.rank0.prePowerDownEnergy            0                       # Energy for precharge power-down per rank (pJ) (Joule)
system.mem_ctrl.dram.rank0.selfRefreshEnergy            0                       # Energy for self refresh per rank (pJ) (Joule)
system.mem_ctrl.dram.rank0.totalEnergy    10595511000                       # Total energy per rank (pJ) (Joule)
system.mem_ctrl.dram.rank0.averagePower    570.495677                       # Core power per rank (mW) (Watt)
system.mem_ctrl.dram.rank0.totalIdleTime            0                       # Total Idle time Per DRAM Rank (Tick)
system.mem_ctrl.dram.rank0.pwrStateTime::IDLE   8280879750                       # Time in different power states (Tick)
system.mem_ctrl.dram.rank0.pwrStateTime::REF    620100000                       # Time in different power states (Tick)
system.mem_ctrl.dram.rank0.pwrStateTime::SREF            0                       # Time in different power states (Tick)
system.mem_ctrl.dram.rank0.pwrStateTime::PRE_PDN            0                       # Time in different power states (Tick)
system.mem_ctrl.dram.rank0.pwrStateTime::ACT   9671485250                       # Time in different power states (Tick)
system.mem_ctrl.dram.rank0.pwrStateTime::ACT_PDN            0                       # Time in different power states (Tick)
system.mem_ctrl.dram.rank1.actEnergy        459287640                       # Energy for activate commands per rank (pJ) (Joule)
system.mem_ctrl.dram.rank1.preEnergy        244109580                       # Energy for precharge commands per rank (pJ) (Joule)
system.mem_ctrl.dram.rank1.readEnergy       444315060                       # Energy for read commands per rank (pJ) (Joule)
system.mem_ctrl.dram.rank1.writeEnergy      156260700                       # Energy for write commands per rank (pJ) (Joule)
system.mem_ctrl.dram.rank1.refreshEnergy 1465916400.000000                       # Energy for refresh commands per rank (pJ) (Joule)
system.mem_ctrl.dram.rank1.actBackEnergy   4122977010                       # Energy for active background per rank (pJ) (Joule)
system.mem_ctrl.dram.rank1.preBackEnergy   3659845920                       # Energy for precharge background per rank (pJ) (Joule)
system.mem_ctrl.dram.rank1.actPowerDownEnergy            0                       # Energy for active power-down per rank (pJ) (Joule)
system.mem_ctrl.dram.rank1.prePowerDownEnergy            0                       # Energy for precharge power-down per rank (pJ) (Joule)
system.mem_ctrl.dram.rank1.selfRefreshEnergy            0                       # Energy for self refresh per rank (pJ) (Joule)
system.mem_ctrl.dram.rank1.totalEnergy    10552712310                       # Total energy per rank (pJ) (Joule)
system.mem_ctrl.dram.rank1.averagePower    568.191261                       # Core power per rank (mW) (Watt)
system.mem_ctrl.dram.rank1.totalIdleTime            0                       # Total Idle time Per DRAM Rank (Tick)
system.mem_ctrl.dram.rank1.pwrStateTime::IDLE   8757941750                       # Time in different power states (Tick)
system.mem_ctrl.dram.rank1.pwrStateTime::REF    620100000                       # Time in different power states (Tick)
system.mem_ctrl.dram.rank1.pwrStateTime::SREF            0                       # Time in different power states (Tick)
system.mem_ctrl.dram.rank1.pwrStateTime::PRE_PDN            0                       # Time in different power states (Tick)
system.mem_ctrl.dram.rank1.pwrStateTime::ACT   9194423250                       # Time in different power states (Tick)
system.mem_ctrl.dram.rank1.pwrStateTime::ACT_PDN            0                       # Time in different power states (Tick)
system.mem_ctrl.power_state.pwrStateResidencyTicks::UNDEFINED  18572465000                       # Cumulative time (in ticks) in various power states (Tick)
system.membus.transDist::ReadResp               62971                       # Transaction distribution (Count)
system.membus.transDist::WritebackDirty         60558                       # Transaction distribution (Count)
system.membus.transDist::CleanEvict             60745                       # Transaction distribution (Count)
system.membus.transDist::ReadExReq              62611                       # Transaction distribution (Count)
system.membus.transDist::ReadExResp             62611                       # Transaction distribution (Count)
system.membus.transDist::ReadSharedReq          62973                       # Transaction distribution (Count)
system.membus.transDist::InvalidateReq              7                       # Transaction distribution (Count)
system.membus.pktCount_system.l2cache.mem_side_port::system.mem_ctrl.port       372476                       # Packet count per connected requestor and responder (Count)
system.membus.pktCount::total                  372476                       # Packet count per connected requestor and responder (Count)
system.membus.pktSize_system.l2cache.mem_side_port::system.mem_ctrl.port     11912960                       # Cumulative packet size per connected requestor and responder (Byte)
system.membus.pktSize::total                 11912960                       # Cumulative packet size per connected requestor and responder (Byte)
system.membus.snoops                                0                       # Total snoops (Count)
system.membus.snoopTraffic                          0                       # Total snoop traffic (Byte)
system.membus.snoopFanout::samples             125591                       # Request fanout histogram (Count)
system.membus.snoopFanout::mean                     0                       # Request fanout histogram (Count)
system.membus.snoopFanout::stdev                    0                       # Request fanout histogram (Count)
system.membus.snoopFanout::underflows               0      0.00%      0.00% # Request fanout histogram (Count)
system.membus.snoopFanout::0                   125591    100.00%    100.00% # Request fanout histogram (Count)
system.membus.snoopFanout::1                        0      0.00%    100.00% # Request fanout histogram (Count)
system.membus.snoopFanout::overflows                0      0.00%    100.00% # Request fanout histogram (Count)
system.membus.snoopFanout::min_value                0                       # Request fanout histogram (Count)
system.membus.snoopFanout::max_value                0                       # Request fanout histogram (Count)
system.membus.snoopFanout::total               125591                       # Request fanout histogram (Count)
system.membus.power_state.pwrStateResidencyTicks::UNDEFINED  18572465000                       # Cumulative time (in ticks) in various power states (Tick)
system.membus.reqLayer0.occupancy           489126000                       # Layer occupancy (ticks) (Tick)
system.membus.reqLayer0.utilization               0.0                       # Layer utilization (Ratio)
system.membus.respLayer0.occupancy          718688500                       # Layer occupancy (ticks) (Tick)
system.membus.respLayer0.utilization              0.0                       # Layer utilization (Ratio)
system.membus.snoop_filter.totRequests         246894                       # Total number of requests made to the snoop filter. (Count)
system.membus.snoop_filter.hitSingleRequests       121303                       # Number of requests hitting in the snoop filter with a single holder of the requested data. (Count)
system.membus.snoop_filter.hitMultiRequests            0                       # Number of requests hitting in the snoop filter with multiple (>1) holders of the requested data. (Count)
system.membus.snoop_filter.totSnoops                0                       # Total number of snoops made to the snoop filter. (Count)
system.membus.snoop_filter.hitSingleSnoops            0                       # Number of snoops hitting in the snoop filter with a single holder of the requested data. (Count)
system.membus.snoop_filter.hitMultiSnoops            0                       # Number of snoops hitting in the snoop filter with multiple (>1) holders of the requested data. (Count)
system.workload.inst.arm                            0                       # number of arm instructions executed (Count)
system.workload.inst.quiesce                        0                       # number of quiesce instructions executed (Count)

---------- End Simulation Statistics   ----------
