
---------- Begin Simulation Statistics ----------
simSeconds                                   0.004239                       # Number of seconds simulated (Second)
simTicks                                   4238917000                       # Number of ticks simulated (Tick)
finalTick                                  4238917000                       # Number of ticks from beginning of simulation (restored from checkpoints and never reset) (Tick)
simFreq                                  1000000000000                       # The number of ticks per simulated second ((Tick/Second))
hostSeconds                                      6.75                       # Real time elapsed on the host (Second)
hostTickRate                                627671336                       # The number of ticks simulated per host second (ticks/s) ((Tick/Second))
hostMemory                                     674324                       # Number of bytes of host memory used (Byte)
simInsts                                      1380579                       # Number of instructions simulated (Count)
simOps                                        1381683                       # Number of ops (including micro ops) simulated (Count)
hostInstRate                                   204424                       # Simulator instruction rate (inst/s) ((Count/Second))
hostOpRate                                     204587                       # Simulator op (including micro ops) rate (op/s) ((Count/Second))
system.clk_domain.clock                          1000                       # Clock period in ticks (Tick)
system.clk_domain.voltage_domain.voltage            1                       # Voltage in Volts (Volt)
system.cpu.numCycles                          4238918                       # Number of cpu cycles simulated (Cycle)
system.cpu.numWorkItemsStarted                      0                       # Number of work items this cpu started (Count)
system.cpu.numWorkItemsCompleted                    0                       # Number of work items this cpu completed (Count)
system.cpu.instsAdded                         1388868                       # Number of instructions added to the IQ (excludes non-spec) (Count)
system.cpu.nonSpecInstsAdded                       70                       # Number of non-speculative instructions added to the IQ (Count)
system.cpu.instsIssued                        2228711                       # Number of instructions issued (Count)
system.cpu.squashedInstsIssued                     93                       # Number of squashed instructions issued (Count)
system.cpu.squashedInstsExamined                 7254                       # Number of squashed instructions iterated over during squash; mainly for profiling (Count)
system.cpu.squashedOperandsExamined              4121                       # Number of squashed operands that are examined and possibly removed from graph (Count)
system.cpu.squashedNonSpecRemoved                  31                       # Number of squashed non-spec instructions that were removed (Count)
system.cpu.numIssuedDist::samples             4223025                       # Number of insts issued each cycle (Count)
system.cpu.numIssuedDist::mean               0.527752                       # Number of insts issued each cycle (Count)
system.cpu.numIssuedDist::stdev              1.354658                       # Number of insts issued each cycle (Count)
system.cpu.numIssuedDist::underflows                0      0.00%      0.00% # Number of insts issued each cycle (Count)
system.cpu.numIssuedDist::0                   3572651     84.60%     84.60% # Number of insts issued each cycle (Count)
system.cpu.numIssuedDist::1                     82721      1.96%     86.56% # Number of insts issued each cycle (Count)
system.cpu.numIssuedDist::2                     92476      2.19%     88.75% # Number of insts issued each cycle (Count)
system.cpu.numIssuedDist::3                    102378      2.42%     91.17% # Number of insts issued each cycle (Count)
system.cpu.numIssuedDist::4                    262313      6.21%     97.38% # Number of insts issued each cycle (Count)
system.cpu.numIssuedDist::5                     65485      1.55%     98.93% # Number of insts issued each cycle (Count)
system.cpu.numIssuedDist::6                     39683      0.94%     99.87% # Number of insts issued each cycle (Count)
system.cpu.numIssuedDist::7                      3415      0.08%     99.95% # Number of insts issued each cycle (Count)
system.cpu.numIssuedDist::8                      1903      0.05%    100.00% # Number of insts issued each cycle (Count)
system.cpu.numIssuedDist::overflows                 0      0.00%    100.00% # Number of insts issued each cycle (Count)
system.cpu.numIssuedDist::min_value                 0                       # Number of insts issued each cycle (Count)
system.cpu.numIssuedDist::max_value                 8                       # Number of insts issued each cycle (Count)
system.cpu.numIssuedDist::total               4223025                       # Number of insts issued each cycle (Count)
system.cpu.statFuBusy::No_OpClass                   0      0.00%      0.00% # attempts to use FU when none available (Count)
system.cpu.statFuBusy::IntAlu                     407      0.31%      0.31% # attempts to use FU when none available (Count)
system.cpu.statFuBusy::IntMult                      0      0.00%      0.31% # attempts to use FU when none available (Count)
system.cpu.statFuBusy::IntDiv                       0      0.00%      0.31% # attempts to use FU when none available (Count)
system.cpu.statFuBusy::FloatAdd                     0      0.00%      0.31% # attempts to use FU when none available (Count)
system.cpu.statFuBusy::FloatCmp                     0      0.00%      0.31% # attempts to use FU when none available (Count)
system.cpu.statFuBusy::FloatCvt                     0      0.00%      0.31% # attempts to use FU when none available (Count)
system.cpu.statFuBusy::FloatMult                    0      0.00%      0.31% # attempts to use FU when none available (Count)
system.cpu.statFuBusy::FloatMultAcc                 0      0.00%      0.31% # attempts to use FU when none available (Count)
system.cpu.statFuBusy::FloatDiv                     0      0.00%      0.31% # attempts to use FU when none available (Count)
system.cpu.statFuBusy::FloatMisc                    0      0.00%      0.31% # attempts to use FU when none available (Count)
system.cpu.statFuBusy::FloatSqrt                    0      0.00%      0.31% # attempts to use FU when none available (Count)
system.cpu.statFuBusy::SimdAdd                      0      0.00%      0.31% # attempts to use FU when none available (Count)
system.cpu.statFuBusy::SimdAddAcc                   0      0.00%      0.31% # attempts to use FU when none available (Count)
system.cpu.statFuBusy::SimdAlu                      0      0.00%      0.31% # attempts to use FU when none available (Count)
system.cpu.statFuBusy::SimdCmp                      0      0.00%      0.31% # attempts to use FU when none available (Count)
system.cpu.statFuBusy::SimdCvt                      0      0.00%      0.31% # attempts to use FU when none available (Count)
system.cpu.statFuBusy::SimdMisc                     0      0.00%      0.31% # attempts to use FU when none available (Count)
system.cpu.statFuBusy::SimdMult                     0      0.00%      0.31% # attempts to use FU when none available (Count)
system.cpu.statFuBusy::SimdMultAcc                  0      0.00%      0.31% # attempts to use FU when none available (Count)
system.cpu.statFuBusy::SimdShift                    0      0.00%      0.31% # attempts to use FU when none available (Count)
system.cpu.statFuBusy::SimdShiftAcc                 0      0.00%      0.31% # attempts to use FU when none available (Count)
system.cpu.statFuBusy::SimdDiv                      0      0.00%      0.31% # attempts to use FU when none available (Count)
system.cpu.statFuBusy::SimdSqrt                     0      0.00%      0.31% # attempts to use FU when none available (Count)
system.cpu.statFuBusy::SimdFloatAdd                 0      0.00%      0.31% # attempts to use FU when none available (Count)
system.cpu.statFuBusy::SimdFloatAlu                 0      0.00%      0.31% # attempts to use FU when none available (Count)
system.cpu.statFuBusy::SimdFloatCmp                 0      0.00%      0.31% # attempts to use FU when none available (Count)
system.cpu.statFuBusy::SimdFloatCvt                 0      0.00%      0.31% # attempts to use FU when none available (Count)
system.cpu.statFuBusy::SimdFloatDiv                 0      0.00%      0.31% # attempts to use FU when none available (Count)
system.cpu.statFuBusy::SimdFloatMisc                0      0.00%      0.31% # attempts to use FU when none available (Count)
system.cpu.statFuBusy::SimdFloatMult                0      0.00%      0.31% # attempts to use FU when none available (Count)
system.cpu.statFuBusy::SimdFloatMultAcc             0      0.00%      0.31% # attempts to use FU when none available (Count)
system.cpu.statFuBusy::SimdFloatSqrt                0      0.00%      0.31% # attempts to use FU when none available (Count)
system.cpu.statFuBusy::SimdReduceAdd                0      0.00%      0.31% # attempts to use FU when none available (Count)
system.cpu.statFuBusy::SimdReduceAlu                0      0.00%      0.31% # attempts to use FU when none available (Count)
system.cpu.statFuBusy::SimdReduceCmp                0      0.00%      0.31% # attempts to use FU when none available (Count)
system.cpu.statFuBusy::SimdFloatReduceAdd            0      0.00%      0.31% # attempts to use FU when none available (Count)
system.cpu.statFuBusy::SimdFloatReduceCmp            0      0.00%      0.31% # attempts to use FU when none available (Count)
system.cpu.statFuBusy::SimdAes                      0      0.00%      0.31% # attempts to use FU when none available (Count)
system.cpu.statFuBusy::SimdAesMix                   0      0.00%      0.31% # attempts to use FU when none available (Count)
system.cpu.statFuBusy::SimdSha1Hash                 0      0.00%      0.31% # attempts to use FU when none available (Count)
system.cpu.statFuBusy::SimdSha1Hash2                0      0.00%      0.31% # attempts to use FU when none available (Count)
system.cpu.statFuBusy::SimdSha256Hash               0      0.00%      0.31% # attempts to use FU when none available (Count)
system.cpu.statFuBusy::SimdSha256Hash2              0      0.00%      0.31% # attempts to use FU when none available (Count)
system.cpu.statFuBusy::SimdShaSigma2                0      0.00%      0.31% # attempts to use FU when none available (Count)
system.cpu.statFuBusy::SimdShaSigma3                0      0.00%      0.31% # attempts to use FU when none available (Count)
system.cpu.statFuBusy::SimdPredAlu                  0      0.00%      0.31% # attempts to use FU when none available (Count)
system.cpu.statFuBusy::MemRead                 131941     99.66%     99.97% # attempts to use FU when none available (Count)
system.cpu.statFuBusy::MemWrite                    43      0.03%    100.00% # attempts to use FU when none available (Count)
system.cpu.statFuBusy::FloatMemRead                 0      0.00%    100.00% # attempts to use FU when none available (Count)
system.cpu.statFuBusy::FloatMemWrite                0      0.00%    100.00% # attempts to use FU when none available (Count)
system.cpu.statFuBusy::IprAccess                    0      0.00%    100.00% # attempts to use FU when none available (Count)
system.cpu.statFuBusy::InstPrefetch                 0      0.00%    100.00% # attempts to use FU when none available (Count)
system.cpu.statIssuedInstType_0::No_OpClass           15      0.00%      0.00% # Number of instructions issued per FU type, per thread (Count)
system.cpu.statIssuedInstType_0::IntAlu       1258932     56.49%     56.49% # Number of instructions issued per FU type, per thread (Count)
system.cpu.statIssuedInstType_0::IntMult            9      0.00%     56.49% # Number of instructions issued per FU type, per thread (Count)
system.cpu.statIssuedInstType_0::IntDiv             3      0.00%     56.49% # Number of instructions issued per FU type, per thread (Count)
system.cpu.statIssuedInstType_0::FloatAdd            0      0.00%     56.49% # Number of instructions issued per FU type, per thread (Count)
system.cpu.statIssuedInstType_0::FloatCmp            0      0.00%     56.49% # Number of instructions issued per FU type, per thread (Count)
system.cpu.statIssuedInstType_0::FloatCvt            0      0.00%     56.49% # Number of instructions issued per FU type, per thread (Count)
system.cpu.statIssuedInstType_0::FloatMult            0      0.00%     56.49% # Number of instructions issued per FU type, per thread (Count)
system.cpu.statIssuedInstType_0::FloatMultAcc            0      0.00%     56.49% # Number of instructions issued per FU type, per thread (Count)
system.cpu.statIssuedInstType_0::FloatDiv            0      0.00%     56.49% # Number of instructions issued per FU type, per thread (Count)
system.cpu.statIssuedInstType_0::FloatMisc            4      0.00%     56.49% # Number of instructions issued per FU type, per thread (Count)
system.cpu.statIssuedInstType_0::FloatSqrt            0      0.00%     56.49% # Number of instructions issued per FU type, per thread (Count)
system.cpu.statIssuedInstType_0::SimdAdd            4      0.00%     56.49% # Number of instructions issued per FU type, per thread (Count)
system.cpu.statIssuedInstType_0::SimdAddAcc            0      0.00%     56.49% # Number of instructions issued per FU type, per thread (Count)
system.cpu.statIssuedInstType_0::SimdAlu            6      0.00%     56.49% # Number of instructions issued per FU type, per thread (Count)
system.cpu.statIssuedInstType_0::SimdCmp            8      0.00%     56.49% # Number of instructions issued per FU type, per thread (Count)
system.cpu.statIssuedInstType_0::SimdCvt            0      0.00%     56.49% # Number of instructions issued per FU type, per thread (Count)
system.cpu.statIssuedInstType_0::SimdMisc            6      0.00%     56.49% # Number of instructions issued per FU type, per thread (Count)
system.cpu.statIssuedInstType_0::SimdMult            0      0.00%     56.49% # Number of instructions issued per FU type, per thread (Count)
system.cpu.statIssuedInstType_0::SimdMultAcc            0      0.00%     56.49% # Number of instructions issued per FU type, per thread (Count)
system.cpu.statIssuedInstType_0::SimdShift            0      0.00%     56.49% # Number of instructions issued per FU type, per thread (Count)
system.cpu.statIssuedInstType_0::SimdShiftAcc            0      0.00%     56.49% # Number of instructions issued per FU type, per thread (Count)
system.cpu.statIssuedInstType_0::SimdDiv            0      0.00%     56.49% # Number of instructions issued per FU type, per thread (Count)
system.cpu.statIssuedInstType_0::SimdSqrt            0      0.00%     56.49% # Number of instructions issued per FU type, per thread (Count)
system.cpu.statIssuedInstType_0::SimdFloatAdd            0      0.00%     56.49% # Number of instructions issued per FU type, per thread (Count)
system.cpu.statIssuedInstType_0::SimdFloatAlu            0      0.00%     56.49% # Number of instructions issued per FU type, per thread (Count)
system.cpu.statIssuedInstType_0::SimdFloatCmp            0      0.00%     56.49% # Number of instructions issued per FU type, per thread (Count)
system.cpu.statIssuedInstType_0::SimdFloatCvt            0      0.00%     56.49% # Number of instructions issued per FU type, per thread (Count)
system.cpu.statIssuedInstType_0::SimdFloatDiv            0      0.00%     56.49% # Number of instructions issued per FU type, per thread (Count)
system.cpu.statIssuedInstType_0::SimdFloatMisc            0      0.00%     56.49% # Number of instructions issued per FU type, per thread (Count)
system.cpu.statIssuedInstType_0::SimdFloatMult            0      0.00%     56.49% # Number of instructions issued per FU type, per thread (Count)
system.cpu.statIssuedInstType_0::SimdFloatMultAcc            0      0.00%     56.49% # Number of instructions issued per FU type, per thread (Count)
system.cpu.statIssuedInstType_0::SimdFloatSqrt            0      0.00%     56.49% # Number of instructions issued per FU type, per thread (Count)
system.cpu.statIssuedInstType_0::SimdReduceAdd            0      0.00%     56.49% # Number of instructions issued per FU type, per thread (Count)
system.cpu.statIssuedInstType_0::SimdReduceAlu            0      0.00%     56.49% # Number of instructions issued per FU type, per thread (Count)
system.cpu.statIssuedInstType_0::SimdReduceCmp            0      0.00%     56.49% # Number of instructions issued per FU type, per thread (Count)
system.cpu.statIssuedInstType_0::SimdFloatReduceAdd            0      0.00%     56.49% # Number of instructions issued per FU type, per thread (Count)
system.cpu.statIssuedInstType_0::SimdFloatReduceCmp            0      0.00%     56.49% # Number of instructions issued per FU type, per thread (Count)
system.cpu.statIssuedInstType_0::SimdAes            0      0.00%     56.49% # Number of instructions issued per FU type, per thread (Count)
system.cpu.statIssuedInstType_0::SimdAesMix            0      0.00%     56.49% # Number of instructions issued per FU type, per thread (Count)
system.cpu.statIssuedInstType_0::SimdSha1Hash            0      0.00%     56.49% # Number of instructions issued per FU type, per thread (Count)
system.cpu.statIssuedInstType_0::SimdSha1Hash2            0      0.00%     56.49% # Number of instructions issued per FU type, per thread (Count)
system.cpu.statIssuedInstType_0::SimdSha256Hash            0      0.00%     56.49% # Number of instructions issued per FU type, per thread (Count)
system.cpu.statIssuedInstType_0::SimdSha256Hash2            0      0.00%     56.49% # Number of instructions issued per FU type, per thread (Count)
system.cpu.statIssuedInstType_0::SimdShaSigma2            0      0.00%     56.49% # Number of instructions issued per FU type, per thread (Count)
system.cpu.statIssuedInstType_0::SimdShaSigma3            0      0.00%     56.49% # Number of instructions issued per FU type, per thread (Count)
system.cpu.statIssuedInstType_0::SimdPredAlu            0      0.00%     56.49% # Number of instructions issued per FU type, per thread (Count)
system.cpu.statIssuedInstType_0::MemRead       905551     40.63%     97.12% # Number of instructions issued per FU type, per thread (Count)
system.cpu.statIssuedInstType_0::MemWrite        64173      2.88%    100.00% # Number of instructions issued per FU type, per thread (Count)
system.cpu.statIssuedInstType_0::FloatMemRead            0      0.00%    100.00% # Number of instructions issued per FU type, per thread (Count)
system.cpu.statIssuedInstType_0::FloatMemWrite            0      0.00%    100.00% # Number of instructions issued per FU type, per thread (Count)
system.cpu.statIssuedInstType_0::IprAccess            0      0.00%    100.00% # Number of instructions issued per FU type, per thread (Count)
system.cpu.statIssuedInstType_0::InstPrefetch            0      0.00%    100.00% # Number of instructions issued per FU type, per thread (Count)
system.cpu.statIssuedInstType_0::total        2228711                       # Number of instructions issued per FU type, per thread (Count)
system.cpu.issueRate                         0.525774                       # Inst issue rate ((Count/Cycle))
system.cpu.fuBusy                              132391                       # FU busy when requested (Count)
system.cpu.fuBusyRate                        0.059402                       # FU busy rate (busy events/executed inst) ((Count/Count))
system.cpu.intInstQueueReads                  8812574                       # Number of integer instruction queue reads (Count)
system.cpu.intInstQueueWrites                 1395917                       # Number of integer instruction queue writes (Count)
system.cpu.intInstQueueWakeupAccesses         1386017                       # Number of integer instruction queue wakeup accesses (Count)
system.cpu.fpInstQueueReads                         0                       # Number of floating instruction queue reads (Count)
system.cpu.fpInstQueueWrites                        0                       # Number of floating instruction queue writes (Count)
system.cpu.fpInstQueueWakeupAccesses                0                       # Number of floating instruction queue wakeup accesses (Count)
system.cpu.vecInstQueueReads                      357                       # Number of vector instruction queue reads (Count)
system.cpu.vecInstQueueWrites                     280                       # Number of vector instruction queue writes (Count)
system.cpu.vecInstQueueWakeupAccesses             131                       # Number of vector instruction queue wakeup accesses (Count)
system.cpu.intAluAccesses                     2360910                       # Number of integer alu accesses (Count)
system.cpu.fpAluAccesses                            0                       # Number of floating point alu accesses (Count)
system.cpu.vecAluAccesses                         177                       # Number of vector alu accesses (Count)
system.cpu.numInsts                           2228154                       # Number of executed instructions (Count)
system.cpu.numLoadInsts                        905483                       # Number of load instructions executed (Count)
system.cpu.numSquashedInsts                       557                       # Number of squashed instructions skipped in execute (Count)
system.cpu.numSwp                                   0                       # Number of swp insts executed (Count)
system.cpu.numNop                                  51                       # Number of nop insts executed (Count)
system.cpu.numRefs                             969503                       # Number of memory reference insts executed (Count)
system.cpu.numBranches                          64459                       # Number of branches executed (Count)
system.cpu.numStoreInsts                        64020                       # Number of stores executed (Count)
system.cpu.numRate                           0.525642                       # Inst execution rate ((Count/Cycle))
system.cpu.timesIdled                             251                       # Number of times that the entire CPU went into an idle state and unscheduled itself (Count)
system.cpu.idleCycles                           15893                       # Total number of cycles that the CPU has spent unscheduled due to idling (Cycle)
system.cpu.committedInsts                     1380579                       # Number of Instructions Simulated (Count)
system.cpu.committedOps                       1381683                       # Number of Ops (including micro ops) Simulated (Count)
system.cpu.cpi                               3.070391                       # CPI: Cycles Per Instruction ((Cycle/Count))
system.cpu.totalCpi                          3.070391                       # CPI: Total CPI of All Threads ((Cycle/Count))
system.cpu.ipc                               0.325691                       # IPC: Instructions Per Cycle ((Count/Cycle))
system.cpu.totalIpc                          0.325691                       # IPC: Total IPC of All Threads ((Count/Cycle))
system.cpu.intRegfileReads                    3319138                       # Number of integer regfile reads (Count)
system.cpu.intRegfileWrites                   1194921                       # Number of integer regfile writes (Count)
system.cpu.vecRegfileReads                        175                       # number of vector regfile reads (Count)
system.cpu.ccRegfileReads                      565602                       # number of cc regfile reads (Count)
system.cpu.ccRegfileWrites                     565533                       # number of cc regfile writes (Count)
system.cpu.miscRegfileReads                     64206                       # number of misc regfile reads (Count)
system.cpu.miscRegfileWrites                       33                       # number of misc regfile writes (Count)
system.cpu.MemDepUnit__0.insertedLoads          64298                       # Number of loads inserted to the mem dependence unit. (Count)
system.cpu.MemDepUnit__0.insertedStores         64524                       # Number of stores inserted to the mem dependence unit. (Count)
system.cpu.MemDepUnit__0.conflictingLoads           31                       # Number of conflicting loads. (Count)
system.cpu.MemDepUnit__0.conflictingStores           55                       # Number of conflicting stores. (Count)
system.cpu.MemDepUnit__1.insertedLoads              0                       # Number of loads inserted to the mem dependence unit. (Count)
system.cpu.MemDepUnit__1.insertedStores             0                       # Number of stores inserted to the mem dependence unit. (Count)
system.cpu.MemDepUnit__1.conflictingLoads            0                       # Number of conflicting loads. (Count)
system.cpu.MemDepUnit__1.conflictingStores            0                       # Number of conflicting stores. (Count)
system.cpu.MemDepUnit__2.insertedLoads              0                       # Number of loads inserted to the mem dependence unit. (Count)
system.cpu.MemDepUnit__2.insertedStores             0                       # Number of stores inserted to the mem dependence unit. (Count)
system.cpu.MemDepUnit__2.conflictingLoads            0                       # Number of conflicting loads. (Count)
system.cpu.MemDepUnit__2.conflictingStores            0                       # Number of conflicting stores. (Count)
system.cpu.MemDepUnit__3.insertedLoads              0                       # Number of loads inserted to the mem dependence unit. (Count)
system.cpu.MemDepUnit__3.insertedStores             0                       # Number of stores inserted to the mem dependence unit. (Count)
system.cpu.MemDepUnit__3.conflictingLoads            0                       # Number of conflicting loads. (Count)
system.cpu.MemDepUnit__3.conflictingStores            0                       # Number of conflicting stores. (Count)
system.cpu.branchPred.lookups                   66262                       # Number of BP lookups (Count)
system.cpu.branchPred.condPredicted             65168                       # Number of conditional branches predicted (Count)
system.cpu.branchPred.condIncorrect               557                       # Number of conditional branches incorrect (Count)
system.cpu.branchPred.BTBLookups                64429                       # Number of BTB lookups (Count)
system.cpu.branchPred.BTBUpdates                  489                       # Number of BTB updates (Count)
system.cpu.branchPred.BTBHits                   63549                       # Number of BTB hits (Count)
system.cpu.branchPred.BTBHitRatio            0.986342                       # BTB Hit Ratio (Ratio)
system.cpu.branchPred.RASUsed                     331                       # Number of times the RAS was used to get a target. (Count)
system.cpu.branchPred.RASIncorrect                  0                       # Number of incorrect RAS predictions. (Count)
system.cpu.branchPred.indirectLookups              57                       # Number of indirect predictor lookups. (Count)
system.cpu.branchPred.indirectHits                  3                       # Number of indirect target hits. (Count)
system.cpu.branchPred.indirectMisses               54                       # Number of indirect misses. (Count)
system.cpu.branchPred.indirectMispredicted           22                       # Number of mispredicted indirect branches. (Count)
system.cpu.commit.commitSquashedInsts            7270                       # The number of squashed insts skipped by commit (Count)
system.cpu.commit.commitNonSpecStalls              39                       # The number of times commit has been forced to stall to communicate backwards (Count)
system.cpu.commit.branchMispredicts               363                       # The number of times a branch was mispredicted (Count)
system.cpu.commit.numCommittedDist::samples      4221808                       # Number of insts commited each cycle (Count)
system.cpu.commit.numCommittedDist::mean     0.327280                       # Number of insts commited each cycle (Count)
system.cpu.commit.numCommittedDist::stdev     1.476579                       # Number of insts commited each cycle (Count)
system.cpu.commit.numCommittedDist::underflows            0      0.00%      0.00% # Number of insts commited each cycle (Count)
system.cpu.commit.numCommittedDist::0         3969528     94.02%     94.02% # Number of insts commited each cycle (Count)
system.cpu.commit.numCommittedDist::1           63370      1.50%     95.53% # Number of insts commited each cycle (Count)
system.cpu.commit.numCommittedDist::2             473      0.01%     95.54% # Number of insts commited each cycle (Count)
system.cpu.commit.numCommittedDist::3             270      0.01%     95.54% # Number of insts commited each cycle (Count)
system.cpu.commit.numCommittedDist::4             162      0.00%     95.55% # Number of insts commited each cycle (Count)
system.cpu.commit.numCommittedDist::5           62599      1.48%     97.03% # Number of insts commited each cycle (Count)
system.cpu.commit.numCommittedDist::6             128      0.00%     97.03% # Number of insts commited each cycle (Count)
system.cpu.commit.numCommittedDist::7              47      0.00%     97.03% # Number of insts commited each cycle (Count)
system.cpu.commit.numCommittedDist::8          125231      2.97%    100.00% # Number of insts commited each cycle (Count)
system.cpu.commit.numCommittedDist::overflows            0      0.00%    100.00% # Number of insts commited each cycle (Count)
system.cpu.commit.numCommittedDist::min_value            0                       # Number of insts commited each cycle (Count)
system.cpu.commit.numCommittedDist::max_value            8                       # Number of insts commited each cycle (Count)
system.cpu.commit.numCommittedDist::total      4221808                       # Number of insts commited each cycle (Count)
system.cpu.commit.instsCommitted              1380610                       # Number of instructions committed (Count)
system.cpu.commit.opsCommitted                1381714                       # Number of ops (including micro ops) committed (Count)
system.cpu.commit.memRefs                      126993                       # Number of memory references committed (Count)
system.cpu.commit.loads                         63369                       # Number of loads committed (Count)
system.cpu.commit.amos                              8                       # Number of atomic instructions committed (Count)
system.cpu.commit.membars                          14                       # Number of memory barriers committed (Count)
system.cpu.commit.branches                      63748                       # Number of branches committed (Count)
system.cpu.commit.vectorInstructions              102                       # Number of committed Vector instructions. (Count)
system.cpu.commit.floating                          0                       # Number of committed floating point instructions. (Count)
system.cpu.commit.integer                     1318482                       # Number of committed integer instructions. (Count)
system.cpu.commit.functionCalls                   131                       # Number of function calls committed. (Count)
system.cpu.commit.committedInstType_0::No_OpClass           15      0.00%      0.00% # Class of committed instruction (Count)
system.cpu.commit.committedInstType_0::IntAlu      1254669     90.81%     90.81% # Class of committed instruction (Count)
system.cpu.commit.committedInstType_0::IntMult            7      0.00%     90.81% # Class of committed instruction (Count)
system.cpu.commit.committedInstType_0::IntDiv            3      0.00%     90.81% # Class of committed instruction (Count)
system.cpu.commit.committedInstType_0::FloatAdd            0      0.00%     90.81% # Class of committed instruction (Count)
system.cpu.commit.committedInstType_0::FloatCmp            0      0.00%     90.81% # Class of committed instruction (Count)
system.cpu.commit.committedInstType_0::FloatCvt            0      0.00%     90.81% # Class of committed instruction (Count)
system.cpu.commit.committedInstType_0::FloatMult            0      0.00%     90.81% # Class of committed instruction (Count)
system.cpu.commit.committedInstType_0::FloatMultAcc            0      0.00%     90.81% # Class of committed instruction (Count)
system.cpu.commit.committedInstType_0::FloatDiv            0      0.00%     90.81% # Class of committed instruction (Count)
system.cpu.commit.committedInstType_0::FloatMisc            4      0.00%     90.81% # Class of committed instruction (Count)
system.cpu.commit.committedInstType_0::FloatSqrt            0      0.00%     90.81% # Class of committed instruction (Count)
system.cpu.commit.committedInstType_0::SimdAdd            4      0.00%     90.81% # Class of committed instruction (Count)
system.cpu.commit.committedInstType_0::SimdAddAcc            0      0.00%     90.81% # Class of committed instruction (Count)
system.cpu.commit.committedInstType_0::SimdAlu            6      0.00%     90.81% # Class of committed instruction (Count)
system.cpu.commit.committedInstType_0::SimdCmp            8      0.00%     90.81% # Class of committed instruction (Count)
system.cpu.commit.committedInstType_0::SimdCvt            0      0.00%     90.81% # Class of committed instruction (Count)
system.cpu.commit.committedInstType_0::SimdMisc            5      0.00%     90.81% # Class of committed instruction (Count)
system.cpu.commit.committedInstType_0::SimdMult            0      0.00%     90.81% # Class of committed instruction (Count)
system.cpu.commit.committedInstType_0::SimdMultAcc            0      0.00%     90.81% # Class of committed instruction (Count)
system.cpu.commit.committedInstType_0::SimdShift            0      0.00%     90.81% # Class of committed instruction (Count)
system.cpu.commit.committedInstType_0::SimdShiftAcc            0      0.00%     90.81% # Class of committed instruction (Count)
system.cpu.commit.committedInstType_0::SimdDiv            0      0.00%     90.81% # Class of committed instruction (Count)
system.cpu.commit.committedInstType_0::SimdSqrt            0      0.00%     90.81% # Class of committed instruction (Count)
system.cpu.commit.committedInstType_0::SimdFloatAdd            0      0.00%     90.81% # Class of committed instruction (Count)
system.cpu.commit.committedInstType_0::SimdFloatAlu            0      0.00%     90.81% # Class of committed instruction (Count)
system.cpu.commit.committedInstType_0::SimdFloatCmp            0      0.00%     90.81% # Class of committed instruction (Count)
system.cpu.commit.committedInstType_0::SimdFloatCvt            0      0.00%     90.81% # Class of committed instruction (Count)
system.cpu.commit.committedInstType_0::SimdFloatDiv            0      0.00%     90.81% # Class of committed instruction (Count)
system.cpu.commit.committedInstType_0::SimdFloatMisc            0      0.00%     90.81% # Class of committed instruction (Count)
system.cpu.commit.committedInstType_0::SimdFloatMult            0      0.00%     90.81% # Class of committed instruction (Count)
system.cpu.commit.committedInstType_0::SimdFloatMultAcc            0      0.00%     90.81% # Class of committed instruction (Count)
system.cpu.commit.committedInstType_0::SimdFloatSqrt            0      0.00%     90.81% # Class of committed instruction (Count)
system.cpu.commit.committedInstType_0::SimdReduceAdd            0      0.00%     90.81% # Class of committed instruction (Count)
system.cpu.commit.committedInstType_0::SimdReduceAlu            0      0.00%     90.81% # Class of committed instruction (Count)
system.cpu.commit.committedInstType_0::SimdReduceCmp            0      0.00%     90.81% # Class of committed instruction (Count)
system.cpu.commit.committedInstType_0::SimdFloatReduceAdd            0      0.00%     90.81% # Class of committed instruction (Count)
system.cpu.commit.committedInstType_0::SimdFloatReduceCmp            0      0.00%     90.81% # Class of committed instruction (Count)
system.cpu.commit.committedInstType_0::SimdAes            0      0.00%     90.81% # Class of committed instruction (Count)
system.cpu.commit.committedInstType_0::SimdAesMix            0      0.00%     90.81% # Class of committed instruction (Count)
system.cpu.commit.committedInstType_0::SimdSha1Hash            0      0.00%     90.81% # Class of committed instruction (Count)
system.cpu.commit.committedInstType_0::SimdSha1Hash2            0      0.00%     90.81% # Class of committed instruction (Count)
system.cpu.commit.committedInstType_0::SimdSha256Hash            0      0.00%     90.81% # Class of committed instruction (Count)
system.cpu.commit.committedInstType_0::SimdSha256Hash2            0      0.00%     90.81% # Class of committed instruction (Count)
system.cpu.commit.committedInstType_0::SimdShaSigma2            0      0.00%     90.81% # Class of committed instruction (Count)
system.cpu.commit.committedInstType_0::SimdShaSigma3            0      0.00%     90.81% # Class of committed instruction (Count)
system.cpu.commit.committedInstType_0::SimdPredAlu            0      0.00%     90.81% # Class of committed instruction (Count)
system.cpu.commit.committedInstType_0::MemRead        63369      4.59%     95.40% # Class of committed instruction (Count)
system.cpu.commit.committedInstType_0::MemWrite        63624      4.60%    100.00% # Class of committed instruction (Count)
system.cpu.commit.committedInstType_0::FloatMemRead            0      0.00%    100.00% # Class of committed instruction (Count)
system.cpu.commit.committedInstType_0::FloatMemWrite            0      0.00%    100.00% # Class of committed instruction (Count)
system.cpu.commit.committedInstType_0::IprAccess            0      0.00%    100.00% # Class of committed instruction (Count)
system.cpu.commit.committedInstType_0::InstPrefetch            0      0.00%    100.00% # Class of committed instruction (Count)
system.cpu.commit.committedInstType_0::total      1381714                       # Class of committed instruction (Count)
system.cpu.commit.commitEligibleSamples        125231                       # number cycles where commit BW limit reached (Cycle)
system.cpu.dcache.demandHits::cpu.data           1827                       # number of demand (read+write) hits (Count)
system.cpu.dcache.demandHits::total              1827                       # number of demand (read+write) hits (Count)
system.cpu.dcache.overallHits::cpu.data          1827                       # number of overall hits (Count)
system.cpu.dcache.overallHits::total             1827                       # number of overall hits (Count)
system.cpu.dcache.demandMisses::cpu.data       125727                       # number of demand (read+write) misses (Count)
system.cpu.dcache.demandMisses::total          125727                       # number of demand (read+write) misses (Count)
system.cpu.dcache.overallMisses::cpu.data       125727                       # number of overall misses (Count)
system.cpu.dcache.overallMisses::total         125727                       # number of overall misses (Count)
system.cpu.dcache.demandMissLatency::cpu.data  17015143513                       # number of demand (read+write) miss ticks (Tick)
system.cpu.dcache.demandMissLatency::total  17015143513                       # number of demand (read+write) miss ticks (Tick)
system.cpu.dcache.overallMissLatency::cpu.data  17015143513                       # number of overall miss ticks (Tick)
system.cpu.dcache.overallMissLatency::total  17015143513                       # number of overall miss ticks (Tick)
system.cpu.dcache.demandAccesses::cpu.data       127554                       # number of demand (read+write) accesses (Count)
system.cpu.dcache.demandAccesses::total        127554                       # number of demand (read+write) accesses (Count)
system.cpu.dcache.overallAccesses::cpu.data       127554                       # number of overall (read+write) accesses (Count)
system.cpu.dcache.overallAccesses::total       127554                       # number of overall (read+write) accesses (Count)
system.cpu.dcache.demandMissRate::cpu.data     0.985677                       # miss rate for demand accesses (Ratio)
system.cpu.dcache.demandMissRate::total      0.985677                       # miss rate for demand accesses (Ratio)
system.cpu.dcache.overallMissRate::cpu.data     0.985677                       # miss rate for overall accesses (Ratio)
system.cpu.dcache.overallMissRate::total     0.985677                       # miss rate for overall accesses (Ratio)
system.cpu.dcache.demandAvgMissLatency::cpu.data 135334.045297                       # average overall miss latency in ticks ((Tick/Count))
system.cpu.dcache.demandAvgMissLatency::total 135334.045297                       # average overall miss latency in ticks ((Tick/Count))
system.cpu.dcache.overallAvgMissLatency::cpu.data 135334.045297                       # average overall miss latency ((Tick/Count))
system.cpu.dcache.overallAvgMissLatency::total 135334.045297                       # average overall miss latency ((Tick/Count))
system.cpu.dcache.blockedCycles::no_mshrs      4020605                       # number of cycles access was blocked (Cycle)
system.cpu.dcache.blockedCycles::no_targets            0                       # number of cycles access was blocked (Cycle)
system.cpu.dcache.blockedCauses::no_mshrs       125068                       # number of times access was blocked (Count)
system.cpu.dcache.blockedCauses::no_targets            0                       # number of times access was blocked (Count)
system.cpu.dcache.avgBlocked::no_mshrs      32.147352                       # average number of cycles each access was blocked ((Cycle/Count))
system.cpu.dcache.avgBlocked::no_targets          nan                       # average number of cycles each access was blocked ((Cycle/Count))
system.cpu.dcache.writebacks::writebacks        62121                       # number of writebacks (Count)
system.cpu.dcache.writebacks::total             62121                       # number of writebacks (Count)
system.cpu.dcache.demandMshrHits::cpu.data          472                       # number of demand (read+write) MSHR hits (Count)
system.cpu.dcache.demandMshrHits::total           472                       # number of demand (read+write) MSHR hits (Count)
system.cpu.dcache.overallMshrHits::cpu.data          472                       # number of overall MSHR hits (Count)
system.cpu.dcache.overallMshrHits::total          472                       # number of overall MSHR hits (Count)
system.cpu.dcache.demandMshrMisses::cpu.data       125255                       # number of demand (read+write) MSHR misses (Count)
system.cpu.dcache.demandMshrMisses::total       125255                       # number of demand (read+write) MSHR misses (Count)
system.cpu.dcache.overallMshrMisses::cpu.data       125255                       # number of overall MSHR misses (Count)
system.cpu.dcache.overallMshrMisses::total       125255                       # number of overall MSHR misses (Count)
system.cpu.dcache.demandMshrMissLatency::cpu.data  16726393539                       # number of demand (read+write) MSHR miss ticks (Tick)
system.cpu.dcache.demandMshrMissLatency::total  16726393539                       # number of demand (read+write) MSHR miss ticks (Tick)
system.cpu.dcache.overallMshrMissLatency::cpu.data  16726393539                       # number of overall MSHR miss ticks (Tick)
system.cpu.dcache.overallMshrMissLatency::total  16726393539                       # number of overall MSHR miss ticks (Tick)
system.cpu.dcache.demandMshrMissRate::cpu.data     0.981976                       # mshr miss ratio for demand accesses (Ratio)
system.cpu.dcache.demandMshrMissRate::total     0.981976                       # mshr miss ratio for demand accesses (Ratio)
system.cpu.dcache.overallMshrMissRate::cpu.data     0.981976                       # mshr miss ratio for overall accesses (Ratio)
system.cpu.dcache.overallMshrMissRate::total     0.981976                       # mshr miss ratio for overall accesses (Ratio)
system.cpu.dcache.demandAvgMshrMissLatency::cpu.data 133538.729304                       # average overall mshr miss latency ((Tick/Count))
system.cpu.dcache.demandAvgMshrMissLatency::total 133538.729304                       # average overall mshr miss latency ((Tick/Count))
system.cpu.dcache.overallAvgMshrMissLatency::cpu.data 133538.729304                       # average overall mshr miss latency ((Tick/Count))
system.cpu.dcache.overallAvgMshrMissLatency::total 133538.729304                       # average overall mshr miss latency ((Tick/Count))
system.cpu.dcache.replacements                 124233                       # number of replacements (Count)
system.cpu.dcache.LoadLockedReq.hits::cpu.data            5                       # number of LoadLockedReq hits (Count)
system.cpu.dcache.LoadLockedReq.hits::total            5                       # number of LoadLockedReq hits (Count)
system.cpu.dcache.LoadLockedReq.misses::cpu.data            2                       # number of LoadLockedReq misses (Count)
system.cpu.dcache.LoadLockedReq.misses::total            2                       # number of LoadLockedReq misses (Count)
system.cpu.dcache.LoadLockedReq.missLatency::cpu.data       272000                       # number of LoadLockedReq miss ticks (Tick)
system.cpu.dcache.LoadLockedReq.missLatency::total       272000                       # number of LoadLockedReq miss ticks (Tick)
system.cpu.dcache.LoadLockedReq.accesses::cpu.data            7                       # number of LoadLockedReq accesses(hits+misses) (Count)
system.cpu.dcache.LoadLockedReq.accesses::total            7                       # number of LoadLockedReq accesses(hits+misses) (Count)
system.cpu.dcache.LoadLockedReq.missRate::cpu.data     0.285714                       # miss rate for LoadLockedReq accesses (Ratio)
system.cpu.dcache.LoadLockedReq.missRate::total     0.285714                       # miss rate for LoadLockedReq accesses (Ratio)
system.cpu.dcache.LoadLockedReq.avgMissLatency::cpu.data       136000                       # average LoadLockedReq miss latency ((Tick/Count))
system.cpu.dcache.LoadLockedReq.avgMissLatency::total       136000                       # average LoadLockedReq miss latency ((Tick/Count))
system.cpu.dcache.LoadLockedReq.mshrMisses::cpu.data            2                       # number of LoadLockedReq MSHR misses (Count)
system.cpu.dcache.LoadLockedReq.mshrMisses::total            2                       # number of LoadLockedReq MSHR misses (Count)
system.cpu.dcache.LoadLockedReq.mshrMissLatency::cpu.data       268000                       # number of LoadLockedReq MSHR miss ticks (Tick)
system.cpu.dcache.LoadLockedReq.mshrMissLatency::total       268000                       # number of LoadLockedReq MSHR miss ticks (Tick)
system.cpu.dcache.LoadLockedReq.mshrMissRate::cpu.data     0.285714                       # mshr miss rate for LoadLockedReq accesses (Ratio)
system.cpu.dcache.LoadLockedReq.mshrMissRate::total     0.285714                       # mshr miss rate for LoadLockedReq accesses (Ratio)
system.cpu.dcache.LoadLockedReq.avgMshrMissLatency::cpu.data       134000                       # average LoadLockedReq mshr miss latency ((Tick/Count))
system.cpu.dcache.LoadLockedReq.avgMshrMissLatency::total       134000                       # average LoadLockedReq mshr miss latency ((Tick/Count))
system.cpu.dcache.ReadReq.hits::cpu.data         1198                       # number of ReadReq hits (Count)
system.cpu.dcache.ReadReq.hits::total            1198                       # number of ReadReq hits (Count)
system.cpu.dcache.ReadReq.misses::cpu.data        62743                       # number of ReadReq misses (Count)
system.cpu.dcache.ReadReq.misses::total         62743                       # number of ReadReq misses (Count)
system.cpu.dcache.ReadReq.missLatency::cpu.data   8521535000                       # number of ReadReq miss ticks (Tick)
system.cpu.dcache.ReadReq.missLatency::total   8521535000                       # number of ReadReq miss ticks (Tick)
system.cpu.dcache.ReadReq.accesses::cpu.data        63941                       # number of ReadReq accesses(hits+misses) (Count)
system.cpu.dcache.ReadReq.accesses::total        63941                       # number of ReadReq accesses(hits+misses) (Count)
system.cpu.dcache.ReadReq.missRate::cpu.data     0.981264                       # miss rate for ReadReq accesses (Ratio)
system.cpu.dcache.ReadReq.missRate::total     0.981264                       # miss rate for ReadReq accesses (Ratio)
system.cpu.dcache.ReadReq.avgMissLatency::cpu.data 135816.505427                       # average ReadReq miss latency ((Tick/Count))
system.cpu.dcache.ReadReq.avgMissLatency::total 135816.505427                       # average ReadReq miss latency ((Tick/Count))
system.cpu.dcache.ReadReq.mshrHits::cpu.data          115                       # number of ReadReq MSHR hits (Count)
system.cpu.dcache.ReadReq.mshrHits::total          115                       # number of ReadReq MSHR hits (Count)
system.cpu.dcache.ReadReq.mshrMisses::cpu.data        62628                       # number of ReadReq MSHR misses (Count)
system.cpu.dcache.ReadReq.mshrMisses::total        62628                       # number of ReadReq MSHR misses (Count)
system.cpu.dcache.ReadReq.mshrMissLatency::cpu.data   8386969000                       # number of ReadReq MSHR miss ticks (Tick)
system.cpu.dcache.ReadReq.mshrMissLatency::total   8386969000                       # number of ReadReq MSHR miss ticks (Tick)
system.cpu.dcache.ReadReq.mshrMissRate::cpu.data     0.979465                       # mshr miss rate for ReadReq accesses (Ratio)
system.cpu.dcache.ReadReq.mshrMissRate::total     0.979465                       # mshr miss rate for ReadReq accesses (Ratio)
system.cpu.dcache.ReadReq.avgMshrMissLatency::cpu.data 133917.241489                       # average ReadReq mshr miss latency ((Tick/Count))
system.cpu.dcache.ReadReq.avgMshrMissLatency::total 133917.241489                       # average ReadReq mshr miss latency ((Tick/Count))
system.cpu.dcache.StoreCondReq.hits::cpu.data            4                       # number of StoreCondReq hits (Count)
system.cpu.dcache.StoreCondReq.hits::total            4                       # number of StoreCondReq hits (Count)
system.cpu.dcache.StoreCondReq.accesses::cpu.data            4                       # number of StoreCondReq accesses(hits+misses) (Count)
system.cpu.dcache.StoreCondReq.accesses::total            4                       # number of StoreCondReq accesses(hits+misses) (Count)
system.cpu.dcache.SwapReq.hits::cpu.data            8                       # number of SwapReq hits (Count)
system.cpu.dcache.SwapReq.hits::total               8                       # number of SwapReq hits (Count)
system.cpu.dcache.SwapReq.accesses::cpu.data            8                       # number of SwapReq accesses(hits+misses) (Count)
system.cpu.dcache.SwapReq.accesses::total            8                       # number of SwapReq accesses(hits+misses) (Count)
system.cpu.dcache.WriteLineReq.misses::cpu.data            7                       # number of WriteLineReq misses (Count)
system.cpu.dcache.WriteLineReq.misses::total            7                       # number of WriteLineReq misses (Count)
system.cpu.dcache.WriteLineReq.missLatency::cpu.data       381997                       # number of WriteLineReq miss ticks (Tick)
system.cpu.dcache.WriteLineReq.missLatency::total       381997                       # number of WriteLineReq miss ticks (Tick)
system.cpu.dcache.WriteLineReq.accesses::cpu.data            7                       # number of WriteLineReq accesses(hits+misses) (Count)
system.cpu.dcache.WriteLineReq.accesses::total            7                       # number of WriteLineReq accesses(hits+misses) (Count)
system.cpu.dcache.WriteLineReq.missRate::cpu.data            1                       # miss rate for WriteLineReq accesses (Ratio)
system.cpu.dcache.WriteLineReq.missRate::total            1                       # miss rate for WriteLineReq accesses (Ratio)
system.cpu.dcache.WriteLineReq.avgMissLatency::cpu.data        54571                       # average WriteLineReq miss latency ((Tick/Count))
system.cpu.dcache.WriteLineReq.avgMissLatency::total        54571                       # average WriteLineReq miss latency ((Tick/Count))
system.cpu.dcache.WriteLineReq.mshrMisses::cpu.data            7                       # number of WriteLineReq MSHR misses (Count)
system.cpu.dcache.WriteLineReq.mshrMisses::total            7                       # number of WriteLineReq MSHR misses (Count)
system.cpu.dcache.WriteLineReq.mshrMissLatency::cpu.data       367997                       # number of WriteLineReq MSHR miss ticks (Tick)
system.cpu.dcache.WriteLineReq.mshrMissLatency::total       367997                       # number of WriteLineReq MSHR miss ticks (Tick)
system.cpu.dcache.WriteLineReq.mshrMissRate::cpu.data            1                       # mshr miss rate for WriteLineReq accesses (Ratio)
system.cpu.dcache.WriteLineReq.mshrMissRate::total            1                       # mshr miss rate for WriteLineReq accesses (Ratio)
system.cpu.dcache.WriteLineReq.avgMshrMissLatency::cpu.data        52571                       # average WriteLineReq mshr miss latency ((Tick/Count))
system.cpu.dcache.WriteLineReq.avgMshrMissLatency::total        52571                       # average WriteLineReq mshr miss latency ((Tick/Count))
system.cpu.dcache.WriteReq.hits::cpu.data          629                       # number of WriteReq hits (Count)
system.cpu.dcache.WriteReq.hits::total            629                       # number of WriteReq hits (Count)
system.cpu.dcache.WriteReq.misses::cpu.data        62977                       # number of WriteReq misses (Count)
system.cpu.dcache.WriteReq.misses::total        62977                       # number of WriteReq misses (Count)
system.cpu.dcache.WriteReq.missLatency::cpu.data   8493226516                       # number of WriteReq miss ticks (Tick)
system.cpu.dcache.WriteReq.missLatency::total   8493226516                       # number of WriteReq miss ticks (Tick)
system.cpu.dcache.WriteReq.accesses::cpu.data        63606                       # number of WriteReq accesses(hits+misses) (Count)
system.cpu.dcache.WriteReq.accesses::total        63606                       # number of WriteReq accesses(hits+misses) (Count)
system.cpu.dcache.WriteReq.missRate::cpu.data     0.990111                       # miss rate for WriteReq accesses (Ratio)
system.cpu.dcache.WriteReq.missRate::total     0.990111                       # miss rate for WriteReq accesses (Ratio)
system.cpu.dcache.WriteReq.avgMissLatency::cpu.data 134862.354764                       # average WriteReq miss latency ((Tick/Count))
system.cpu.dcache.WriteReq.avgMissLatency::total 134862.354764                       # average WriteReq miss latency ((Tick/Count))
system.cpu.dcache.WriteReq.mshrHits::cpu.data          357                       # number of WriteReq MSHR hits (Count)
system.cpu.dcache.WriteReq.mshrHits::total          357                       # number of WriteReq MSHR hits (Count)
system.cpu.dcache.WriteReq.mshrMisses::cpu.data        62620                       # number of WriteReq MSHR misses (Count)
system.cpu.dcache.WriteReq.mshrMisses::total        62620                       # number of WriteReq MSHR misses (Count)
system.cpu.dcache.WriteReq.mshrMissLatency::cpu.data   8339056542                       # number of WriteReq MSHR miss ticks (Tick)
system.cpu.dcache.WriteReq.mshrMissLatency::total   8339056542                       # number of WriteReq MSHR miss ticks (Tick)
system.cpu.dcache.WriteReq.mshrMissRate::cpu.data     0.984498                       # mshr miss rate for WriteReq accesses (Ratio)
system.cpu.dcache.WriteReq.mshrMissRate::total     0.984498                       # mshr miss rate for WriteReq accesses (Ratio)
system.cpu.dcache.WriteReq.avgMshrMissLatency::cpu.data 133169.219770                       # average WriteReq mshr miss latency ((Tick/Count))
system.cpu.dcache.WriteReq.avgMshrMissLatency::total 133169.219770                       # average WriteReq mshr miss latency ((Tick/Count))
system.cpu.dcache.power_state.pwrStateResidencyTicks::UNDEFINED   4238917000                       # Cumulative time (in ticks) in various power states (Tick)
system.cpu.dcache.tags.tagsInUse          1015.169264                       # Average ticks per tags in use ((Tick/Count))
system.cpu.dcache.tags.totalRefs               127101                       # Total number of references to valid blocks. (Count)
system.cpu.dcache.tags.sampledRefs             125257                       # Sample count of references to valid blocks. (Count)
system.cpu.dcache.tags.avgRefs               1.014722                       # Average number of references to valid blocks. ((Count/Count))
system.cpu.dcache.tags.warmupTick              222000                       # The tick when the warmup percentage was hit. (Tick)
system.cpu.dcache.tags.occupancies::cpu.data  1015.169264                       # Average occupied blocks per tick, per requestor ((Count/Tick))
system.cpu.dcache.tags.avgOccs::cpu.data     0.991376                       # Average percentage of cache occupancy ((Ratio/Tick))
system.cpu.dcache.tags.avgOccs::total        0.991376                       # Average percentage of cache occupancy ((Ratio/Tick))
system.cpu.dcache.tags.occupanciesTaskId::1024         1024                       # Occupied blocks per task id (Count)
system.cpu.dcache.tags.ageTaskId_1024::0          215                       # Occupied blocks per task id, per block age (Count)
system.cpu.dcache.tags.ageTaskId_1024::1          809                       # Occupied blocks per task id, per block age (Count)
system.cpu.dcache.tags.ratioOccsTaskId::1024            1                       # Ratio of occupied blocks and all blocks, per task id (Ratio)
system.cpu.dcache.tags.tagAccesses             380403                       # Number of tag accesses (Count)
system.cpu.dcache.tags.dataAccesses            380403                       # Number of data accesses (Count)
system.cpu.dcache.tags.power_state.pwrStateResidencyTicks::UNDEFINED   4238917000                       # Cumulative time (in ticks) in various power states (Tick)
system.cpu.decode.idleCycles                    66839                       # Number of cycles decode is idle (Cycle)
system.cpu.decode.blockedCycles               3980942                       # Number of cycles decode is blocked (Cycle)
system.cpu.decode.runCycles                     53697                       # Number of cycles decode is running (Cycle)
system.cpu.decode.unblockCycles                121156                       # Number of cycles decode is unblocking (Cycle)
system.cpu.decode.squashCycles                    391                       # Number of cycles decode is squashing (Cycle)
system.cpu.decode.branchResolved                63665                       # Number of times decode resolved a branch (Count)
system.cpu.decode.branchMispred                   198                       # Number of times decode detected a branch misprediction (Count)
system.cpu.decode.decodedInsts                1391206                       # Number of instructions handled by decode (Count)
system.cpu.decode.squashedInsts                   852                       # Number of squashed instructions handled by decode (Count)
system.cpu.fetch.icacheStallCycles             135604                       # Number of cycles fetch is stalled on an Icache miss (Cycle)
system.cpu.fetch.insts                        1392800                       # Number of instructions fetch has processed (Count)
system.cpu.fetch.branches                       66262                       # Number of branches that fetch encountered (Count)
system.cpu.fetch.predictedBranches              63883                       # Number of branches that fetch has predicted taken (Count)
system.cpu.fetch.cycles                       4086836                       # Number of cycles fetch has run and was not squashing or blocked (Cycle)
system.cpu.fetch.squashCycles                    1170                       # Number of cycles fetch has spent squashing (Cycle)
system.cpu.fetch.cacheLines                    127403                       # Number of cache lines fetched (Count)
system.cpu.fetch.icacheSquashes                   365                       # Number of outstanding Icache misses that were squashed (Count)
system.cpu.fetch.nisnDist::samples            4223025                       # Number of instructions fetched each cycle (Total) (Count)
system.cpu.fetch.nisnDist::mean              0.330366                       # Number of instructions fetched each cycle (Total) (Count)
system.cpu.fetch.nisnDist::stdev             1.435357                       # Number of instructions fetched each cycle (Total) (Count)
system.cpu.fetch.nisnDist::underflows               0      0.00%      0.00% # Number of instructions fetched each cycle (Total) (Count)
system.cpu.fetch.nisnDist::0                  3956789     93.70%     93.70% # Number of instructions fetched each cycle (Total) (Count)
system.cpu.fetch.nisnDist::1                      401      0.01%     93.71% # Number of instructions fetched each cycle (Total) (Count)
system.cpu.fetch.nisnDist::2                    87676      2.08%     95.78% # Number of instructions fetched each cycle (Total) (Count)
system.cpu.fetch.nisnDist::3                      228      0.01%     95.79% # Number of instructions fetched each cycle (Total) (Count)
system.cpu.fetch.nisnDist::4                    35840      0.85%     96.64% # Number of instructions fetched each cycle (Total) (Count)
system.cpu.fetch.nisnDist::5                      170      0.00%     96.64% # Number of instructions fetched each cycle (Total) (Count)
system.cpu.fetch.nisnDist::6                    30328      0.72%     97.36% # Number of instructions fetched each cycle (Total) (Count)
system.cpu.fetch.nisnDist::7                      214      0.01%     97.36% # Number of instructions fetched each cycle (Total) (Count)
system.cpu.fetch.nisnDist::8                   111379      2.64%    100.00% # Number of instructions fetched each cycle (Total) (Count)
system.cpu.fetch.nisnDist::overflows                0      0.00%    100.00% # Number of instructions fetched each cycle (Total) (Count)
system.cpu.fetch.nisnDist::min_value                0                       # Number of instructions fetched each cycle (Total) (Count)
system.cpu.fetch.nisnDist::max_value                8                       # Number of instructions fetched each cycle (Total) (Count)
system.cpu.fetch.nisnDist::total              4223025                       # Number of instructions fetched each cycle (Total) (Count)
system.cpu.fetch.branchRate                  0.015632                       # Number of branch fetches per cycle (Ratio)
system.cpu.fetch.rate                        0.328574                       # Number of inst fetches per cycle ((Count/Cycle))
system.cpu.icache.demandHits::cpu.inst         126887                       # number of demand (read+write) hits (Count)
system.cpu.icache.demandHits::total            126887                       # number of demand (read+write) hits (Count)
system.cpu.icache.overallHits::cpu.inst        126887                       # number of overall hits (Count)
system.cpu.icache.overallHits::total           126887                       # number of overall hits (Count)
system.cpu.icache.demandMisses::cpu.inst          516                       # number of demand (read+write) misses (Count)
system.cpu.icache.demandMisses::total             516                       # number of demand (read+write) misses (Count)
system.cpu.icache.overallMisses::cpu.inst          516                       # number of overall misses (Count)
system.cpu.icache.overallMisses::total            516                       # number of overall misses (Count)
system.cpu.icache.demandMissLatency::cpu.inst     49207000                       # number of demand (read+write) miss ticks (Tick)
system.cpu.icache.demandMissLatency::total     49207000                       # number of demand (read+write) miss ticks (Tick)
system.cpu.icache.overallMissLatency::cpu.inst     49207000                       # number of overall miss ticks (Tick)
system.cpu.icache.overallMissLatency::total     49207000                       # number of overall miss ticks (Tick)
system.cpu.icache.demandAccesses::cpu.inst       127403                       # number of demand (read+write) accesses (Count)
system.cpu.icache.demandAccesses::total        127403                       # number of demand (read+write) accesses (Count)
system.cpu.icache.overallAccesses::cpu.inst       127403                       # number of overall (read+write) accesses (Count)
system.cpu.icache.overallAccesses::total       127403                       # number of overall (read+write) accesses (Count)
system.cpu.icache.demandMissRate::cpu.inst     0.004050                       # miss rate for demand accesses (Ratio)
system.cpu.icache.demandMissRate::total      0.004050                       # miss rate for demand accesses (Ratio)
system.cpu.icache.overallMissRate::cpu.inst     0.004050                       # miss rate for overall accesses (Ratio)
system.cpu.icache.overallMissRate::total     0.004050                       # miss rate for overall accesses (Ratio)
system.cpu.icache.demandAvgMissLatency::cpu.inst 95362.403101                       # average overall miss latency in ticks ((Tick/Count))
system.cpu.icache.demandAvgMissLatency::total 95362.403101                       # average overall miss latency in ticks ((Tick/Count))
system.cpu.icache.overallAvgMissLatency::cpu.inst 95362.403101                       # average overall miss latency ((Tick/Count))
system.cpu.icache.overallAvgMissLatency::total 95362.403101                       # average overall miss latency ((Tick/Count))
system.cpu.icache.blockedCycles::no_mshrs          395                       # number of cycles access was blocked (Cycle)
system.cpu.icache.blockedCycles::no_targets            0                       # number of cycles access was blocked (Cycle)
system.cpu.icache.blockedCauses::no_mshrs            4                       # number of times access was blocked (Count)
system.cpu.icache.blockedCauses::no_targets            0                       # number of times access was blocked (Count)
system.cpu.icache.avgBlocked::no_mshrs      98.750000                       # average number of cycles each access was blocked ((Cycle/Count))
system.cpu.icache.avgBlocked::no_targets          nan                       # average number of cycles each access was blocked ((Cycle/Count))
system.cpu.icache.demandMshrHits::cpu.inst          143                       # number of demand (read+write) MSHR hits (Count)
system.cpu.icache.demandMshrHits::total           143                       # number of demand (read+write) MSHR hits (Count)
system.cpu.icache.overallMshrHits::cpu.inst          143                       # number of overall MSHR hits (Count)
system.cpu.icache.overallMshrHits::total          143                       # number of overall MSHR hits (Count)
system.cpu.icache.demandMshrMisses::cpu.inst          373                       # number of demand (read+write) MSHR misses (Count)
system.cpu.icache.demandMshrMisses::total          373                       # number of demand (read+write) MSHR misses (Count)
system.cpu.icache.overallMshrMisses::cpu.inst          373                       # number of overall MSHR misses (Count)
system.cpu.icache.overallMshrMisses::total          373                       # number of overall MSHR misses (Count)
system.cpu.icache.demandMshrMissLatency::cpu.inst     38125000                       # number of demand (read+write) MSHR miss ticks (Tick)
system.cpu.icache.demandMshrMissLatency::total     38125000                       # number of demand (read+write) MSHR miss ticks (Tick)
system.cpu.icache.overallMshrMissLatency::cpu.inst     38125000                       # number of overall MSHR miss ticks (Tick)
system.cpu.icache.overallMshrMissLatency::total     38125000                       # number of overall MSHR miss ticks (Tick)
system.cpu.icache.demandMshrMissRate::cpu.inst     0.002928                       # mshr miss ratio for demand accesses (Ratio)
system.cpu.icache.demandMshrMissRate::total     0.002928                       # mshr miss ratio for demand accesses (Ratio)
system.cpu.icache.overallMshrMissRate::cpu.inst     0.002928                       # mshr miss ratio for overall accesses (Ratio)
system.cpu.icache.overallMshrMissRate::total     0.002928                       # mshr miss ratio for overall accesses (Ratio)
system.cpu.icache.demandAvgMshrMissLatency::cpu.inst 102211.796247                       # average overall mshr miss latency ((Tick/Count))
system.cpu.icache.demandAvgMshrMissLatency::total 102211.796247                       # average overall mshr miss latency ((Tick/Count))
system.cpu.icache.overallAvgMshrMissLatency::cpu.inst 102211.796247                       # average overall mshr miss latency ((Tick/Count))
system.cpu.icache.overallAvgMshrMissLatency::total 102211.796247                       # average overall mshr miss latency ((Tick/Count))
system.cpu.icache.replacements                    135                       # number of replacements (Count)
system.cpu.icache.ReadReq.hits::cpu.inst       126887                       # number of ReadReq hits (Count)
system.cpu.icache.ReadReq.hits::total          126887                       # number of ReadReq hits (Count)
system.cpu.icache.ReadReq.misses::cpu.inst          516                       # number of ReadReq misses (Count)
system.cpu.icache.ReadReq.misses::total           516                       # number of ReadReq misses (Count)
system.cpu.icache.ReadReq.missLatency::cpu.inst     49207000                       # number of ReadReq miss ticks (Tick)
system.cpu.icache.ReadReq.missLatency::total     49207000                       # number of ReadReq miss ticks (Tick)
system.cpu.icache.ReadReq.accesses::cpu.inst       127403                       # number of ReadReq accesses(hits+misses) (Count)
system.cpu.icache.ReadReq.accesses::total       127403                       # number of ReadReq accesses(hits+misses) (Count)
system.cpu.icache.ReadReq.missRate::cpu.inst     0.004050                       # miss rate for ReadReq accesses (Ratio)
system.cpu.icache.ReadReq.missRate::total     0.004050                       # miss rate for ReadReq accesses (Ratio)
system.cpu.icache.ReadReq.avgMissLatency::cpu.inst 95362.403101                       # average ReadReq miss latency ((Tick/Count))
system.cpu.icache.ReadReq.avgMissLatency::total 95362.403101                       # average ReadReq miss latency ((Tick/Count))
system.cpu.icache.ReadReq.mshrHits::cpu.inst          143                       # number of ReadReq MSHR hits (Count)
system.cpu.icache.ReadReq.mshrHits::total          143                       # number of ReadReq MSHR hits (Count)
system.cpu.icache.ReadReq.mshrMisses::cpu.inst          373                       # number of ReadReq MSHR misses (Count)
system.cpu.icache.ReadReq.mshrMisses::total          373                       # number of ReadReq MSHR misses (Count)
system.cpu.icache.ReadReq.mshrMissLatency::cpu.inst     38125000                       # number of ReadReq MSHR miss ticks (Tick)
system.cpu.icache.ReadReq.mshrMissLatency::total     38125000                       # number of ReadReq MSHR miss ticks (Tick)
system.cpu.icache.ReadReq.mshrMissRate::cpu.inst     0.002928                       # mshr miss rate for ReadReq accesses (Ratio)
system.cpu.icache.ReadReq.mshrMissRate::total     0.002928                       # mshr miss rate for ReadReq accesses (Ratio)
system.cpu.icache.ReadReq.avgMshrMissLatency::cpu.inst 102211.796247                       # average ReadReq mshr miss latency ((Tick/Count))
system.cpu.icache.ReadReq.avgMshrMissLatency::total 102211.796247                       # average ReadReq mshr miss latency ((Tick/Count))
system.cpu.icache.power_state.pwrStateResidencyTicks::UNDEFINED   4238917000                       # Cumulative time (in ticks) in various power states (Tick)
system.cpu.icache.tags.tagsInUse           205.513813                       # Average ticks per tags in use ((Tick/Count))
system.cpu.icache.tags.totalRefs               127258                       # Total number of references to valid blocks. (Count)
system.cpu.icache.tags.sampledRefs                371                       # Sample count of references to valid blocks. (Count)
system.cpu.icache.tags.avgRefs             343.013477                       # Average number of references to valid blocks. ((Count/Count))
system.cpu.icache.tags.warmupTick              107000                       # The tick when the warmup percentage was hit. (Tick)
system.cpu.icache.tags.occupancies::cpu.inst   205.513813                       # Average occupied blocks per tick, per requestor ((Count/Tick))
system.cpu.icache.tags.avgOccs::cpu.inst     0.802788                       # Average percentage of cache occupancy ((Ratio/Tick))
system.cpu.icache.tags.avgOccs::total        0.802788                       # Average percentage of cache occupancy ((Ratio/Tick))
system.cpu.icache.tags.occupanciesTaskId::1024          236                       # Occupied blocks per task id (Count)
system.cpu.icache.tags.ageTaskId_1024::0           49                       # Occupied blocks per task id, per block age (Count)
system.cpu.icache.tags.ageTaskId_1024::3          187                       # Occupied blocks per task id, per block age (Count)
system.cpu.icache.tags.ratioOccsTaskId::1024     0.921875                       # Ratio of occupied blocks and all blocks, per task id (Ratio)
system.cpu.icache.tags.tagAccesses             255177                       # Number of tag accesses (Count)
system.cpu.icache.tags.dataAccesses            255177                       # Number of data accesses (Count)
system.cpu.icache.tags.power_state.pwrStateResidencyTicks::UNDEFINED   4238917000                       # Cumulative time (in ticks) in various power states (Tick)
system.cpu.iew.idleCycles                           0                       # Number of cycles IEW is idle (Cycle)
system.cpu.iew.squashCycles                       391                       # Number of cycles IEW is squashing (Cycle)
system.cpu.iew.blockCycles                        994                       # Number of cycles IEW is blocking (Cycle)
system.cpu.iew.unblockCycles                      224                       # Number of cycles IEW is unblocking (Cycle)
system.cpu.iew.dispatchedInsts                1388989                       # Number of instructions dispatched to IQ (Count)
system.cpu.iew.dispSquashedInsts                   90                       # Number of squashed instructions skipped by dispatch (Count)
system.cpu.iew.dispLoadInsts                    64298                       # Number of dispatched load instructions (Count)
system.cpu.iew.dispStoreInsts                   64524                       # Number of dispatched store instructions (Count)
system.cpu.iew.dispNonSpecInsts                    69                       # Number of dispatched non-speculative instructions (Count)
system.cpu.iew.iqFullEvents                         5                       # Number of times the IQ has become full, causing a stall (Count)
system.cpu.iew.lsqFullEvents                      219                       # Number of times the LSQ has become full, causing a stall (Count)
system.cpu.iew.memOrderViolationEvents              5                       # Number of memory order violations (Count)
system.cpu.iew.predictedTakenIncorrect             53                       # Number of branches that were predicted taken incorrectly (Count)
system.cpu.iew.predictedNotTakenIncorrect          349                       # Number of branches that were predicted not taken incorrectly (Count)
system.cpu.iew.branchMispredicts                  402                       # Number of branch mispredicts detected at execute (Count)
system.cpu.iew.instsToCommit                  1386453                       # Cumulative count of insts sent to commit (Count)
system.cpu.iew.writebackCount                 1386148                       # Cumulative count of insts written-back (Count)
system.cpu.iew.producerInst                   1107140                       # Number of instructions producing a value (Count)
system.cpu.iew.consumerInst                   1538217                       # Number of instructions consuming a value (Count)
system.cpu.iew.wbRate                        0.327005                       # Insts written-back per cycle ((Count/Cycle))
system.cpu.iew.wbFanout                      0.719755                       # Average fanout of values written-back ((Count/Count))
system.cpu.lsq0.forwLoads                          20                       # Number of loads that had data forwarded from stores (Count)
system.cpu.lsq0.squashedLoads                     929                       # Number of loads squashed (Count)
system.cpu.lsq0.ignoredResponses                    0                       # Number of memory responses ignored because the instruction is squashed (Count)
system.cpu.lsq0.memOrderViolation                   5                       # Number of memory ordering violations (Count)
system.cpu.lsq0.squashedStores                    900                       # Number of stores squashed (Count)
system.cpu.lsq0.rescheduledLoads                   14                       # Number of loads that were rescheduled (Count)
system.cpu.lsq0.blockedByCache                 125064                       # Number of times an access to memory failed due to the cache being blocked (Count)
system.cpu.lsq0.loadToUse::samples              63369                       # Distribution of cycle latency between the first time a load is issued and its completion (Unspecified)
system.cpu.lsq0.loadToUse::mean            588.717796                       # Distribution of cycle latency between the first time a load is issued and its completion (Unspecified)
system.cpu.lsq0.loadToUse::stdev           145.686113                       # Distribution of cycle latency between the first time a load is issued and its completion (Unspecified)
system.cpu.lsq0.loadToUse::0-9                    734      1.16%      1.16% # Distribution of cycle latency between the first time a load is issued and its completion (Unspecified)
system.cpu.lsq0.loadToUse::10-19                    5      0.01%      1.17% # Distribution of cycle latency between the first time a load is issued and its completion (Unspecified)
system.cpu.lsq0.loadToUse::20-29                    2      0.00%      1.17% # Distribution of cycle latency between the first time a load is issued and its completion (Unspecified)
[...]
system.mem_ctrl.dram.bytesWritten::writebacks      3876032                       # Number of bytes written to this memory (Byte)
system.mem_ctrl.dram.bytesWritten::total      3876032                       # Number of bytes written to this memory (Byte)
system.mem_ctrl.dram.numReads::cpu.inst           354                       # Number of read requests responded to by this memory (Count)
system.mem_ctrl.dram.numReads::cpu.data        125238                       # Number of read requests responded to by this memory (Count)
system.mem_ctrl.dram.numReads::total           125592                       # Number of read requests responded to by this memory (Count)
system.mem_ctrl.dram.numWrites::writebacks        60563                       # Number of write requests responded to by this memory (Count)
system.mem_ctrl.dram.numWrites::total           60563                       # Number of write requests responded to by this memory (Count)
system.mem_ctrl.dram.bwRead::cpu.inst         5344761                       # Total read bandwidth from this memory ((Byte/Second))
system.mem_ctrl.dram.bwRead::cpu.data      1890867880                       # Total read bandwidth from this memory ((Byte/Second))
system.mem_ctrl.dram.bwRead::total         1896212641                       # Total read bandwidth from this memory ((Byte/Second))
system.mem_ctrl.dram.bwInstRead::cpu.inst      5344761                       # Instruction read bandwidth from this memory ((Byte/Second))
system.mem_ctrl.dram.bwInstRead::total        5344761                       # Instruction read bandwidth from this memory ((Byte/Second))
system.mem_ctrl.dram.bwWrite::writebacks    914392049                       # Write bandwidth from this memory ((Byte/Second))
system.mem_ctrl.dram.bwWrite::total         914392049                       # Write bandwidth from this memory ((Byte/Second))
system.mem_ctrl.dram.bwTotal::writebacks    914392049                       # Total bandwidth to/from this memory ((Byte/Second))
system.mem_ctrl.dram.bwTotal::cpu.inst        5344761                       # Total bandwidth to/from this memory ((Byte/Second))
system.mem_ctrl.dram.bwTotal::cpu.data     1890867880                       # Total bandwidth to/from this memory ((Byte/Second))
system.mem_ctrl.dram.bwTotal::total        2810604690                       # Total bandwidth to/from this memory ((Byte/Second))
system.mem_ctrl.dram.readBursts                125593                       # Number of DRAM read bursts (Count)
system.mem_ctrl.dram.writeBursts                60544                       # Number of DRAM write bursts (Count)
system.mem_ctrl.dram.perBankRdBursts::0          8057                       # Per bank write bursts (Count)
system.mem_ctrl.dram.perBankRdBursts::1          8008                       # Per bank write bursts (Count)
system.mem_ctrl.dram.perBankRdBursts::2          7973                       # Per bank write bursts (Count)
system.mem_ctrl.dram.perBankRdBursts::3          7940                       # Per bank write bursts (Count)
system.mem_ctrl.dram.perBankRdBursts::4          7963                       # Per bank write bursts (Count)
system.mem_ctrl.dram.perBankRdBursts::5          8760                       # Per bank write bursts (Count)
system.mem_ctrl.dram.perBankRdBursts::6          6975                       # Per bank write bursts (Count)
system.mem_ctrl.dram.perBankRdBursts::7          7695                       # Per bank write bursts (Count)
system.mem_ctrl.dram.perBankRdBursts::8          7719                       # Per bank write bursts (Count)
system.mem_ctrl.dram.perBankRdBursts::9          7712                       # Per bank write bursts (Count)
system.mem_ctrl.dram.perBankRdBursts::10         7686                       # Per bank write bursts (Count)
system.mem_ctrl.dram.perBankRdBursts::11         7712                       # Per bank write bursts (Count)
system.mem_ctrl.dram.perBankRdBursts::12         7694                       # Per bank write bursts (Count)
system.mem_ctrl.dram.perBankRdBursts::13         7746                       # Per bank write bursts (Count)
system.mem_ctrl.dram.perBankRdBursts::14         7989                       # Per bank write bursts (Count)
system.mem_ctrl.dram.perBankRdBursts::15         7964                       # Per bank write bursts (Count)
system.mem_ctrl.dram.perBankWrBursts::0          3847                       # Per bank write bursts (Count)
system.mem_ctrl.dram.perBankWrBursts::1          3884                       # Per bank write bursts (Count)
system.mem_ctrl.dram.perBankWrBursts::2          3849                       # Per bank write bursts (Count)
system.mem_ctrl.dram.perBankWrBursts::3          3840                       # Per bank write bursts (Count)
system.mem_ctrl.dram.perBankWrBursts::4          3853                       # Per bank write bursts (Count)
system.mem_ctrl.dram.perBankWrBursts::5          4595                       # Per bank write bursts (Count)
system.mem_ctrl.dram.perBankWrBursts::6          3023                       # Per bank write bursts (Count)
system.mem_ctrl.dram.perBankWrBursts::7          3712                       # Per bank write bursts (Count)
system.mem_ctrl.dram.perBankWrBursts::8          3712                       # Per bank write bursts (Count)
system.mem_ctrl.dram.perBankWrBursts::9          3712                       # Per bank write bursts (Count)
system.mem_ctrl.dram.perBankWrBursts::10         3712                       # Per bank write bursts (Count)
system.mem_ctrl.dram.perBankWrBursts::11         3712                       # Per bank write bursts (Count)
system.mem_ctrl.dram.perBankWrBursts::12         3712                       # Per bank write bursts (Count)
system.mem_ctrl.dram.perBankWrBursts::13         3749                       # Per bank write bursts (Count)
system.mem_ctrl.dram.perBankWrBursts::14         3792                       # Per bank write bursts (Count)
system.mem_ctrl.dram.perBankWrBursts::15         3840                       # Per bank write bursts (Count)
system.mem_ctrl.dram.totQLat               4893484500                       # Total ticks spent queuing (Tick)
system.mem_ctrl.dram.totBusLat              627965000                       # Total ticks spent in databus transfers (Tick)
system.mem_ctrl.dram.totMemAccLat          7248353250                       # Total ticks spent from burst creation until serviced by the DRAM (Tick)
system.mem_ctrl.dram.avgQLat                 38963.04                       # Average queueing delay per DRAM burst ((Tick/Count))
system.mem_ctrl.dram.avgBusLat                5000.00                       # Average bus latency per DRAM burst ((Tick/Count))
system.mem_ctrl.dram.avgMemAccLat            57713.04                       # Average memory access latency per DRAM burst ((Tick/Count))
system.mem_ctrl.dram.readRowHits                76885                       # Number of row buffer hits during reads (Count)
system.mem_ctrl.dram.writeRowHits               56143                       # Number of row buffer hits during writes (Count)
system.mem_ctrl.dram.readRowHitRate             61.22                       # Row buffer hit rate for reads (Ratio)
system.mem_ctrl.dram.writeRowHitRate            92.73                       # Row buffer hit rate for writes (Ratio)
system.mem_ctrl.dram.bytesPerActivate::samples        53100                       # Bytes accessed per row activation (Byte)
system.mem_ctrl.dram.bytesPerActivate::mean   224.307345                       # Bytes accessed per row activation (Byte)
system.mem_ctrl.dram.bytesPerActivate::gmean   168.990080                       # Bytes accessed per row activation (Byte)
system.mem_ctrl.dram.bytesPerActivate::stdev   233.907288                       # Bytes accessed per row activation (Byte)
system.mem_ctrl.dram.bytesPerActivate::0-127         2837      5.34%      5.34% # Bytes accessed per row activation (Byte)
system.mem_ctrl.dram.bytesPerActivate::128-255        38291     72.11%     77.45% # Bytes accessed per row activation (Byte)
system.mem_ctrl.dram.bytesPerActivate::256-383         2166      4.08%     81.53% # Bytes accessed per row activation (Byte)
system.mem_ctrl.dram.bytesPerActivate::384-511         5878     11.07%     92.60% # Bytes accessed per row activation (Byte)
system.mem_ctrl.dram.bytesPerActivate::512-639           58      0.11%     92.71% # Bytes accessed per row activation (Byte)
system.mem_ctrl.dram.bytesPerActivate::640-767           82      0.15%     92.87% # Bytes accessed per row activation (Byte)
system.mem_ctrl.dram.bytesPerActivate::768-895           66      0.12%     92.99% # Bytes accessed per row activation (Byte)
system.mem_ctrl.dram.bytesPerActivate::896-1023          492      0.93%     93.92% # Bytes accessed per row activation (Byte)
system.mem_ctrl.dram.bytesPerActivate::1024-1151         3230      6.08%    100.00% # Bytes accessed per row activation (Byte)
system.mem_ctrl.dram.bytesPerActivate::total        53100                       # Bytes accessed per row activation (Byte)
system.mem_ctrl.dram.bytesRead                8037952                       # Total bytes read (Byte)
system.mem_ctrl.dram.bytesWritten             3874816                       # Total bytes written (Byte)
system.mem_ctrl.dram.avgRdBW              1896.227739                       # Average DRAM read bandwidth in MiBytes/s ((Byte/Second))
system.mem_ctrl.dram.avgWrBW               914.105183                       # Average DRAM write bandwidth in MiBytes/s ((Byte/Second))
system.mem_ctrl.dram.peakBW                  12800.00                       # Theoretical peak bandwidth in MiByte/s ((Byte/Second))
system.mem_ctrl.dram.busUtil                    21.96                       # Data bus utilization in percentage (Ratio)
system.mem_ctrl.dram.busUtilRead                14.81                       # Data bus utilization in percentage for reads (Ratio)
system.mem_ctrl.dram.busUtilWrite                7.14                       # Data bus utilization in percentage for writes (Ratio)
system.mem_ctrl.dram.pageHitRate                71.47                       # Row buffer hit rate, read and write combined (Ratio)
system.mem_ctrl.dram.power_state.pwrStateResidencyTicks::UNDEFINED   4238917000                       # Cumulative time (in ticks) in various power states (Tick)
system.mem_ctrl.dram.rank0.actEnergy        188067600                       # Energy for activate commands per rank (pJ) (Joule)
system.mem_ctrl.dram.rank0.preEnergy         99933735                       # Energy for precharge commands per rank (pJ) (Joule)
system.mem_ctrl.dram.rank0.readEnergy       452468940                       # Energy for read commands per rank (pJ) (Joule)
system.mem_ctrl.dram.rank0.writeEnergy      159747660                       # Energy for write commands per rank (pJ) (Joule)
system.mem_ctrl.dram.rank0.refreshEnergy 334364160.000000                       # Energy for refresh commands per rank (pJ) (Joule)
system.mem_ctrl.dram.rank0.actBackEnergy   1072982250                       # Energy for active background per rank (pJ) (Joule)
system.mem_ctrl.dram.rank0.preBackEnergy    724180320                       # Energy for precharge background per rank (pJ) (Joule)
system.mem_ctrl.dram.rank0.actPowerDownEnergy            0                       # Energy for active power-down per rank (pJ) (Joule)
system.mem_ctrl.dram.rank0.prePowerDownEnergy            0                       # Energy for precharge power-down per rank (pJ) (Joule)
system.mem_ctrl.dram.rank0.selfRefreshEnergy            0                       # Energy for self refresh per rank (pJ) (Joule)
system.mem_ctrl.dram.rank0.totalEnergy     3031744665                       # Total energy per rank (pJ) (Joule)
system.mem_ctrl.dram.rank0.averagePower    715.216803                       # Core power per rank (mW) (Watt)
system.mem_ctrl.dram.rank0.totalIdleTime            0                       # Total Idle time Per DRAM Rank (Tick)
system.mem_ctrl.dram.rank0.pwrStateTime::IDLE   1694234250                       # Time in different power states (Tick)
system.mem_ctrl.dram.rank0.pwrStateTime::REF    141440000                       # Time in different power states (Tick)
system.mem_ctrl.dram.rank0.pwrStateTime::SREF            0                       # Time in different power states (Tick)
system.mem_ctrl.dram.rank0.pwrStateTime::PRE_PDN            0                       # Time in different power states (Tick)
system.mem_ctrl.dram.rank0.pwrStateTime::ACT   2403242750                       # Time in different power states (Tick)
system.mem_ctrl.dram.rank0.pwrStateTime::ACT_PDN            0                       # Time in different power states (Tick)
system.mem_ctrl.dram.rank1.actEnergy        191130660                       # Energy for activate commands per rank (pJ) (Joule)
system.mem_ctrl.dram.rank1.preEnergy        101580765                       # Energy for precharge commands per rank (pJ) (Joule)
system.mem_ctrl.dram.rank1.readEnergy       444265080                       # Energy for read commands per rank (pJ) (Joule)
system.mem_ctrl.dram.rank1.writeEnergy      156292020                       # Energy for write commands per rank (pJ) (Joule)
system.mem_ctrl.dram.rank1.refreshEnergy 334364160.000000                       # Energy for refresh commands per rank (pJ) (Joule)
system.mem_ctrl.dram.rank1.actBackEnergy   1003081440                       # Energy for active background per rank (pJ) (Joule)
system.mem_ctrl.dram.rank1.preBackEnergy    783044160                       # Energy for precharge background per rank (pJ) (Joule)
system.mem_ctrl.dram.rank1.actPowerDownEnergy            0                       # Energy for active power-down per rank (pJ) (Joule)
system.mem_ctrl.dram.rank1.prePowerDownEnergy            0                       # Energy for precharge power-down per rank (pJ) (Joule)
system.mem_ctrl.dram.rank1.selfRefreshEnergy            0                       # Energy for self refresh per rank (pJ) (Joule)
system.mem_ctrl.dram.rank1.totalEnergy     3013758285                       # Total energy per rank (pJ) (Joule)
system.mem_ctrl.dram.rank1.averagePower    710.973648                       # Core power per rank (mW) (Watt)
system.mem_ctrl.dram.rank1.totalIdleTime            0                       # Total Idle time Per DRAM Rank (Tick)
system.mem_ctrl.dram.rank1.pwrStateTime::IDLE   1845386500                       # Time in different power states (Tick)
system.mem_ctrl.dram.rank1.pwrStateTime::REF    141440000                       # Time in different power states (Tick)
system.mem_ctrl.dram.rank1.pwrStateTime::SREF            0                       # Time in different power states (Tick)
system.mem_ctrl.dram.rank1.pwrStateTime::PRE_PDN            0                       # Time in different power states (Tick)
system.mem_ctrl.dram.rank1.pwrStateTime::ACT   2252090500                       # Time in different power states (Tick)
system.mem_ctrl.dram.rank1.pwrStateTime::ACT_PDN            0                       # Time in different power states (Tick)
system.mem_ctrl.power_state.pwrStateResidencyTicks::UNDEFINED   4238917000                       # Cumulative time (in ticks) in various power states (Tick)
system.membus.transDist::ReadResp               62980                       # Transaction distribution (Count)
system.membus.transDist::WritebackDirty         60563                       # Transaction distribution (Count)
system.membus.transDist::CleanEvict             60752                       # Transaction distribution (Count)
system.membus.transDist::ReadExReq              62611                       # Transaction distribution (Count)
system.membus.transDist::ReadExResp             62611                       # Transaction distribution (Count)
system.membus.transDist::ReadSharedReq          62982                       # Transaction distribution (Count)
system.membus.transDist::InvalidateReq              7                       # Transaction distribution (Count)
system.membus.pktCount_system.l2cache.mem_side_port::system.mem_ctrl.port       372506                       # Packet count per connected requestor and responder (Count)
system.membus.pktCount::total                  372506                       # Packet count per connected requestor and responder (Count)
system.membus.pktSize_system.l2cache.mem_side_port::system.mem_ctrl.port     11913856                       # Cumulative packet size per connected requestor and responder (Byte)
system.membus.pktSize::total                 11913856                       # Cumulative packet size per connected requestor and responder (Byte)
system.membus.snoops                                0                       # Total snoops (Count)
system.membus.snoopTraffic                          0                       # Total snoop traffic (Byte)
system.membus.snoopFanout::samples             125600                       # Request fanout histogram (Count)
system.membus.snoopFanout::mean                     0                       # Request fanout histogram (Count)
system.membus.snoopFanout::stdev                    0                       # Request fanout histogram (Count)
system.membus.snoopFanout::underflows               0      0.00%      0.00% # Request fanout histogram (Count)
system.membus.snoopFanout::0                   125600    100.00%    100.00% # Request fanout histogram (Count)
system.membus.snoopFanout::1                        0      0.00%    100.00% # Request fanout histogram (Count)
system.membus.snoopFanout::overflows                0      0.00%    100.00% # Request fanout histogram (Count)
system.membus.snoopFanout::min_value                0                       # Request fanout histogram (Count)
system.membus.snoopFanout::max_value                0                       # Request fanout histogram (Count)
system.membus.snoopFanout::total               125600                       # Request fanout histogram (Count)
system.membus.power_state.pwrStateResidencyTicks::UNDEFINED   4238917000                       # Cumulative time (in ticks) in various power states (Tick)
system.membus.reqLayer0.occupancy           489167000                       # Layer occupancy (ticks) (Tick)
system.membus.reqLayer0.utilization               0.1                       # Layer utilization (Ratio)
system.membus.respLayer0.occupancy          653985750                       # Layer occupancy (ticks) (Tick)
system.membus.respLayer0.utilization              0.2                       # Layer utilization (Ratio)
system.membus.snoop_filter.totRequests         246915                       # Total number of requests made to the snoop filter. (Count)
system.membus.snoop_filter.hitSingleRequests       121315                       # Number of requests hitting in the snoop filter with a single holder of the requested data. (Count)
system.membus.snoop_filter.hitMultiRequests            0                       # Number of requests hitting in the snoop filter with multiple (>1) holders of the requested data. (Count)
system.membus.snoop_filter.totSnoops                0                       # Total number of snoops made to the snoop filter. (Count)
system.membus.snoop_filter.hitSingleSnoops            0                       # Number of snoops hitting in the snoop filter with a single holder of the requested data. (Count)
system.membus.snoop_filter.hitMultiSnoops            0                       # Number of snoops hitting in the snoop filter with multiple (>1) holders of the requested data. (Count)
system.workload.inst.arm                            0                       # number of arm instructions executed (Count)
system.workload.inst.quiesce                        0                       # number of quiesce instructions executed (Count)

---------- End Simulation Statistics   ----------
