
---------- Begin Simulation Statistics ----------
simSeconds                                   0.000910                       # Number of seconds simulated (Second)
simTicks                                    910020000                       # Number of ticks simulated (Tick)
finalTick                                   910020000                       # Number of ticks from beginning of simulation (restored from checkpoints and never reset) (Tick)
simFreq                                  1000000000000                       # The number of ticks per simulated second ((Tick/Second))
hostSeconds                                      3.96                       # Real time elapsed on the host (Second)
hostTickRate                                230017133                       # The number of ticks simulated per host second (ticks/s) ((Tick/Second))
hostMemory                                     674324                       # Number of bytes of host memory used (Byte)
simInsts                                      1380550                       # Number of instructions simulated (Count)
simOps                                        1381654                       # Number of ops (including micro ops) simulated (Count)
hostInstRate                                   348939                       # Simulator instruction rate (inst/s) ((Count/Second))
hostOpRate                                     349217                       # Simulator op (including micro ops) rate (op/s) ((Count/Second))
system.clk_domain.clock                          1000                       # Clock period in ticks (Tick)
system.clk_domain.voltage_domain.voltage            1                       # Voltage in Volts (Volt)
system.cpu.numCycles                           910021                       # Number of cpu cycles simulated (Cycle)
system.cpu.numWorkItemsStarted                      0                       # Number of work items this cpu started (Count)
system.cpu.numWorkItemsCompleted                    0                       # Number of work items this cpu completed (Count)
system.cpu.instsAdded                         1387388                       # Number of instructions added to the IQ (excludes non-spec) (Count)
system.cpu.nonSpecInstsAdded                       69                       # Number of non-speculative instructions added to the IQ (Count)
system.cpu.instsIssued                        2147015                       # Number of instructions issued (Count)
system.cpu.squashedInstsIssued                     93                       # Number of squashed instructions issued (Count)
system.cpu.squashedInstsExamined                 5802                       # Number of squashed instructions iterated over during squash; mainly for profiling (Count)
system.cpu.squashedOperandsExamined              3239                       # Number of squashed operands that are examined and possibly removed from graph (Count)
system.cpu.squashedNonSpecRemoved                  30                       # Number of squashed non-spec instructions that were removed (Count)
system.cpu.numIssuedDist::samples              894696                       # Number of insts issued each cycle (Count)
system.cpu.numIssuedDist::mean               2.399715                       # Number of insts issued each cycle (Count)
system.cpu.numIssuedDist::stdev              2.340594                       # Number of insts issued each cycle (Count)
system.cpu.numIssuedDist::underflows                0      0.00%      0.00% # Number of insts issued each cycle (Count)
system.cpu.numIssuedDist::0                    346101     38.68%     38.68% # Number of insts issued each cycle (Count)
system.cpu.numIssuedDist::1                     48667      5.44%     44.12% # Number of insts issued each cycle (Count)
system.cpu.numIssuedDist::2                     78032      8.72%     52.84% # Number of insts issued each cycle (Count)
system.cpu.numIssuedDist::3                     77926      8.71%     61.55% # Number of insts issued each cycle (Count)
system.cpu.numIssuedDist::4                    169406     18.93%     80.49% # Number of insts issued each cycle (Count)
system.cpu.numIssuedDist::5                     81604      9.12%     89.61% # Number of insts issued each cycle (Count)
system.cpu.numIssuedDist::6                     51903      5.80%     95.41% # Number of insts issued each cycle (Count)
system.cpu.numIssuedDist::7                     17012      1.90%     97.31% # Number of insts issued each cycle (Count)
system.cpu.numIssuedDist::8                     24045      2.69%    100.00% # Number of insts issued each cycle (Count)
system.cpu.numIssuedDist::overflows                 0      0.00%    100.00% # Number of insts issued each cycle (Count)
system.cpu.numIssuedDist::min_value                 0                       # Number of insts issued each cycle (Count)
system.cpu.numIssuedDist::max_value                 8                       # Number of insts issued each cycle (Count)
system.cpu.numIssuedDist::total                894696                       # Number of insts issued each cycle (Count)
system.cpu.statFuBusy::No_OpClass                   0      0.00%      0.00% # attempts to use FU when none available (Count)
system.cpu.statFuBusy::IntAlu                   16457     12.81%     12.81% # attempts to use FU when none available (Count)
system.cpu.statFuBusy::IntMult                      0      0.00%     12.81% # attempts to use FU when none available (Count)
system.cpu.statFuBusy::IntDiv                       0      0.00%     12.81% # attempts to use FU when none available (Count)
system.cpu.statFuBusy::FloatAdd                     0      0.00%     12.81% # attempts to use FU when none available (Count)
system.cpu.statFuBusy::FloatCmp                     0      0.00%     12.81% # attempts to use FU when none available (Count)
system.cpu.statFuBusy::FloatCvt                     0      0.00%     12.81% # attempts to use FU when none available (Count)
system.cpu.statFuBusy::FloatMult                    0      0.00%     12.81% # attempts to use FU when none available (Count)
system.cpu.statFuBusy::FloatMultAcc                 0      0.00%     12.81% # attempts to use FU when none available (Count)
system.cpu.statFuBusy::FloatDiv                     0      0.00%     12.81% # attempts to use FU when none available (Count)
system.cpu.statFuBusy::FloatMisc                    0      0.00%     12.81% # attempts to use FU when none available (Count)
system.cpu.statFuBusy::FloatSqrt                    0      0.00%     12.81% # attempts to use FU when none available (Count)
system.cpu.statFuBusy::SimdAdd                      0      0.00%     12.81% # attempts to use FU when none available (Count)
system.cpu.statFuBusy::SimdAddAcc                   0      0.00%     12.81% # attempts to use FU when none available (Count)
system.cpu.statFuBusy::SimdAlu                      0      0.00%     12.81% # attempts to use FU when none available (Count)
system.cpu.statFuBusy::SimdCmp                      0      0.00%     12.81% # attempts to use FU when none available (Count)
system.cpu.statFuBusy::SimdCvt                      0      0.00%     12.81% # attempts to use FU when none available (Count)
system.cpu.statFuBusy::SimdMisc                     0      0.00%     12.81% # attempts to use FU when none available (Count)
system.cpu.statFuBusy::SimdMult                     0      0.00%     12.81% # attempts to use FU when none available (Count)
system.cpu.statFuBusy::SimdMultAcc                  0      0.00%     12.81% # attempts to use FU when none available (Count)
system.cpu.statFuBusy::SimdShift                    0      0.00%     12.81% # attempts to use FU when none available (Count)
system.cpu.statFuBusy::SimdShiftAcc                 0      0.00%     12.81% # attempts to use FU when none available (Count)
system.cpu.statFuBusy::SimdDiv                      0      0.00%     12.81% # attempts to use FU when none available (Count)
system.cpu.statFuBusy::SimdSqrt                     0      0.00%     12.81% # attempts to use FU when none available (Count)
system.cpu.statFuBusy::SimdFloatAdd                 0      0.00%     12.81% # attempts to use FU when none available (Count)
system.cpu.statFuBusy::SimdFloatAlu                 0      0.00%     12.81% # attempts to use FU when none available (Count)
system.cpu.statFuBusy::SimdFloatCmp                 0      0.00%     12.81% # attempts to use FU when none available (Count)
system.cpu.statFuBusy::SimdFloatCvt                 0      0.00%     12.81% # attempts to use FU when none available (Count)
system.cpu.statFuBusy::SimdFloatDiv                 0      0.00%     12.81% # attempts to use FU when none available (Count)
system.cpu.statFuBusy::SimdFloatMisc                0      0.00%     12.81% # attempts to use FU when none available (Count)
system.cpu.statFuBusy::SimdFloatMult                0      0.00%     12.81% # attempts to use FU when none available (Count)
system.cpu.statFuBusy::SimdFloatMultAcc             0      0.00%     12.81% # attempts to use FU when none available (Count)
system.cpu.statFuBusy::SimdFloatSqrt                0      0.00%     12.81% # attempts to use FU when none available (Count)
system.cpu.statFuBusy::SimdReduceAdd                0      0.00%     12.81% # attempts to use FU when none available (Count)
system.cpu.statFuBusy::SimdReduceAlu                0      0.00%     12.81% # attempts to use FU when none available (Count)
system.cpu.statFuBusy::SimdReduceCmp                0      0.00%     12.81% # attempts to use FU when none available (Count)
system.cpu.statFuBusy::SimdFloatReduceAdd            0      0.00%     12.81% # attempts to use FU when none available (Count)
system.cpu.statFuBusy::SimdFloatReduceCmp            0      0.00%     12.81% # attempts to use FU when none available (Count)
system.cpu.statFuBusy::SimdAes                      0      0.00%     12.81% # attempts to use FU when none available (Count)
system.cpu.statFuBusy::SimdAesMix                   0      0.00%     12.81% # attempts to use FU when none available (Count)
system.cpu.statFuBusy::SimdSha1Hash                 0      0.00%     12.81% # attempts to use FU when none available (Count)
system.cpu.statFuBusy::SimdSha1Hash2                0      0.00%     12.81% # attempts to use FU when none available (Count)
system.cpu.statFuBusy::SimdSha256Hash               0      0.00%     12.81% # attempts to use FU when none available (Count)
system.cpu.statFuBusy::SimdSha256Hash2              0      0.00%     12.81% # attempts to use FU when none available (Count)
system.cpu.statFuBusy::SimdShaSigma2                0      0.00%     12.81% # attempts to use FU when none available (Count)
system.cpu.statFuBusy::SimdShaSigma3                0      0.00%     12.81% # attempts to use FU when none available (Count)
system.cpu.statFuBusy::SimdPredAlu                  0      0.00%     12.81% # attempts to use FU when none available (Count)
system.cpu.statFuBusy::MemRead                 111936     87.15%     99.97% # attempts to use FU when none available (Count)
system.cpu.statFuBusy::MemWrite                    42      0.03%    100.00% # attempts to use FU when none available (Count)
system.cpu.statFuBusy::FloatMemRead                 0      0.00%    100.00% # attempts to use FU when none available (Count)
system.cpu.statFuBusy::FloatMemWrite                0      0.00%    100.00% # attempts to use FU when none available (Count)
system.cpu.statFuBusy::IprAccess                    0      0.00%    100.00% # attempts to use FU when none available (Count)
system.cpu.statFuBusy::InstPrefetch                 0      0.00%    100.00% # attempts to use FU when none available (Count)
system.cpu.statIssuedInstType_0::No_OpClass           15      0.00%      0.00% # Number of instructions issued per FU type, per thread (Count)
system.cpu.statIssuedInstType_0::IntAlu       1257957     58.59%     58.59% # Number of instructions issued per FU type, per thread (Count)
system.cpu.statIssuedInstType_0::IntMult            9      0.00%     58.59% # Number of instructions issued per FU type, per thread (Count)
system.cpu.statIssuedInstType_0::IntDiv             3      0.00%     58.59% # Number of instructions issued per FU type, per thread (Count)
system.cpu.statIssuedInstType_0::FloatAdd            0      0.00%     58.59% # Number of instructions issued per FU type, per thread (Count)
system.cpu.statIssuedInstType_0::FloatCmp            0      0.00%     58.59% # Number of instructions issued per FU type, per thread (Count)
system.cpu.statIssuedInstType_0::FloatCvt            0      0.00%     58.59% # Number of instructions issued per FU type, per thread (Count)
system.cpu.statIssuedInstType_0::FloatMult            0      0.00%     58.59% # Number of instructions issued per FU type, per thread (Count)
system.cpu.statIssuedInstType_0::FloatMultAcc            0      0.00%     58.59% # Number of instructions issued per FU type, per thread (Count)
system.cpu.statIssuedInstType_0::FloatDiv            0      0.00%     58.59% # Number of instructions issued per FU type, per thread (Count)
system.cpu.statIssuedInstType_0::FloatMisc            4      0.00%     58.59% # Number of instructions issued per FU type, per thread (Count)
system.cpu.statIssuedInstType_0::FloatSqrt            0      0.00%     58.59% # Number of instructions issued per FU type, per thread (Count)
system.cpu.statIssuedInstType_0::SimdAdd            4      0.00%     58.59% # Number of instructions issued per FU type, per thread (Count)
system.cpu.statIssuedInstType_0::SimdAddAcc            0      0.00%     58.59% # Number of instructions issued per FU type, per thread (Count)
system.cpu.statIssuedInstType_0::SimdAlu            6      0.00%     58.59% # Number of instructions issued per FU type, per thread (Count)
system.cpu.statIssuedInstType_0::SimdCmp            8      0.00%     58.59% # Number of instructions issued per FU type, per thread (Count)
system.cpu.statIssuedInstType_0::SimdCvt            0      0.00%     58.59% # Number of instructions issued per FU type, per thread (Count)
system.cpu.statIssuedInstType_0::SimdMisc            6      0.00%     58.59% # Number of instructions issued per FU type, per thread (Count)
system.cpu.statIssuedInstType_0::SimdMult            0      0.00%     58.59% # Number of instructions issued per FU type, per thread (Count)
system.cpu.statIssuedInstType_0::SimdMultAcc            0      0.00%     58.59% # Number of instructions issued per FU type, per thread (Count)
system.cpu.statIssuedInstType_0::SimdShift            0      0.00%     58.59% # Number of instructions issued per FU type, per thread (Count)
system.cpu.statIssuedInstType_0::SimdShiftAcc            0      0.00%     58.59% # Number of instructions issued per FU type, per thread (Count)
system.cpu.statIssuedInstType_0::SimdDiv            0      0.00%     58.59% # Number of instructions issued per FU type, per thread (Count)
system.cpu.statIssuedInstType_0::SimdSqrt            0      0.00%     58.59% # Number of instructions issued per FU type, per thread (Count)
system.cpu.statIssuedInstType_0::SimdFloatAdd            0      0.00%     58.59% # Number of instructions issued per FU type, per thread (Count)
system.cpu.statIssuedInstType_0::SimdFloatAlu            0      0.00%     58.59% # Number of instructions issued per FU type, per thread (Count)
system.cpu.statIssuedInstType_0::SimdFloatCmp            0      0.00%     58.59% # Number of instructions issued per FU type, per thread (Count)
system.cpu.statIssuedInstType_0::SimdFloatCvt            0      0.00%     58.59% # Number of instructions issued per FU type, per thread (Count)
system.cpu.statIssuedInstType_0::SimdFloatDiv            0      0.00%     58.59% # Number of instructions issued per FU type, per thread (Count)
system.cpu.statIssuedInstType_0::SimdFloatMisc            0      0.00%     58.59% # Number of instructions issued per FU type, per thread (Count)
system.cpu.statIssuedInstType_0::SimdFloatMult            0      0.00%     58.59% # Number of instructions issued per FU type, per thread (Count)
system.cpu.statIssuedInstType_0::SimdFloatMultAcc            0      0.00%     58.59% # Number of instructions issued per FU type, per thread (Count)
system.cpu.statIssuedInstType_0::SimdFloatSqrt            0      0.00%     58.59% # Number of instructions issued per FU type, per thread (Count)
system.cpu.statIssuedInstType_0::SimdReduceAdd            0      0.00%     58.59% # Number of instructions issued per FU type, per thread (Count)
system.cpu.statIssuedInstType_0::SimdReduceAlu            0      0.00%     58.59% # Number of instructions issued per FU type, per thread (Count)
system.cpu.statIssuedInstType_0::SimdReduceCmp            0      0.00%     58.59% # Number of instructions issued per FU type, per thread (Count)
system.cpu.statIssuedInstType_0::SimdFloatReduceAdd            0      0.00%     58.59% # Number of instructions issued per FU type, per thread (Count)
system.cpu.statIssuedInstType_0::SimdFloatReduceCmp            0      0.00%     58.59% # Number of instructions issued per FU type, per thread (Count)
system.cpu.statIssuedInstType_0::SimdAes            0      0.00%     58.59% # Number of instructions issued per FU type, per thread (Count)
system.cpu.statIssuedInstType_0::SimdAesMix            0      0.00%     58.59% # Number of instructions issued per FU type, per thread (Count)
system.cpu.statIssuedInstType_0::SimdSha1Hash            0      0.00%     58.59% # Number of instructions issued per FU type, per thread (Count)
system.cpu.statIssuedInstType_0::SimdSha1Hash2            0      0.00%     58.59% # Number of instructions issued per FU type, per thread (Count)
system.cpu.statIssuedInstType_0::SimdSha256Hash            0      0.00%     58.59% # Number of instructions issued per FU type, per thread (Count)
system.cpu.statIssuedInstType_0::SimdSha256Hash2            0      0.00%     58.59% # Number of instructions issued per FU type, per thread (Count)
system.cpu.statIssuedInstType_0::SimdShaSigma2            0      0.00%     58.59% # Number of instructions issued per FU type, per thread (Count)
system.cpu.statIssuedInstType_0::SimdShaSigma3            0      0.00%     58.59% # Number of instructions issued per FU type, per thread (Count)
system.cpu.statIssuedInstType_0::SimdPredAlu            0      0.00%     58.59% # Number of instructions issued per FU type, per thread (Count)
system.cpu.statIssuedInstType_0::MemRead       824992     38.43%     97.02% # Number of instructions issued per FU type, per thread (Count)
system.cpu.statIssuedInstType_0::MemWrite        64011      2.98%    100.00% # Number of instructions issued per FU type, per thread (Count)
system.cpu.statIssuedInstType_0::FloatMemRead            0      0.00%    100.00% # Number of instructions issued per FU type, per thread (Count)
system.cpu.statIssuedInstType_0::FloatMemWrite            0      0.00%    100.00% # Number of instructions issued per FU type, per thread (Count)
system.cpu.statIssuedInstType_0::IprAccess            0      0.00%    100.00% # Number of instructions issued per FU type, per thread (Count)
system.cpu.statIssuedInstType_0::InstPrefetch            0      0.00%    100.00% # Number of instructions issued per FU type, per thread (Count)
system.cpu.statIssuedInstType_0::total        2147015                       # Number of instructions issued per FU type, per thread (Count)
system.cpu.issueRate                         2.359303                       # Inst issue rate ((Count/Cycle))
system.cpu.fuBusy                              128435                       # FU busy when requested (Count)
system.cpu.fuBusyRate                        0.059820                       # FU busy rate (busy events/executed inst) ((Count/Count))
system.cpu.intInstQueueReads                  5316901                       # Number of integer instruction queue reads (Count)
system.cpu.intInstQueueWrites                 1392988                       # Number of integer instruction queue writes (Count)
system.cpu.intInstQueueWakeupAccesses         1384994                       # Number of integer instruction queue wakeup accesses (Count)
system.cpu.fpInstQueueReads                         0                       # Number of floating instruction queue reads (Count)
system.cpu.fpInstQueueWrites                        0                       # Number of floating instruction queue writes (Count)
system.cpu.fpInstQueueWakeupAccesses                0                       # Number of floating instruction queue wakeup accesses (Count)
system.cpu.vecInstQueueReads                      353                       # Number of vector instruction queue reads (Count)
system.cpu.vecInstQueueWrites                     276                       # Number of vector instruction queue writes (Count)
system.cpu.vecInstQueueWakeupAccesses             130                       # Number of vector instruction queue wakeup accesses (Count)
system.cpu.intAluAccesses                     2275260                       # Number of integer alu accesses (Count)
system.cpu.fpAluAccesses                            0                       # Number of floating point alu accesses (Count)
system.cpu.vecAluAccesses                         175                       # Number of vector alu accesses (Count)
system.cpu.numInsts                           2146493                       # Number of executed instructions (Count)
system.cpu.numLoadInsts                        824920                       # Number of load instructions executed (Count)
system.cpu.numSquashedInsts                       522                       # Number of squashed instructions skipped in execute (Count)
system.cpu.numSwp                                   0                       # Number of swp insts executed (Count)
system.cpu.numNop                                  48                       # Number of nop insts executed (Count)
system.cpu.numRefs                             888811                       # Number of memory reference insts executed (Count)
system.cpu.numBranches                          64346                       # Number of branches executed (Count)
system.cpu.numStoreInsts                        63891                       # Number of stores executed (Count)
system.cpu.numRate                           2.358729                       # Inst execution rate ((Count/Cycle))
system.cpu.timesIdled                             244                       # Number of times that the entire CPU went into an idle state and unscheduled itself (Count)
system.cpu.idleCycles                           15325                       # Total number of cycles that the CPU has spent unscheduled due to idling (Cycle)
system.cpu.committedInsts                     1380550                       # Number of Instructions Simulated (Count)
system.cpu.committedOps                       1381654                       # Number of Ops (including micro ops) Simulated (Count)
system.cpu.cpi                               0.659173                       # CPI: Cycles Per Instruction ((Cycle/Count))
system.cpu.totalCpi                          0.659173                       # CPI: Total CPI of All Threads ((Cycle/Count))
system.cpu.ipc                               1.517053                       # IPC: Instructions Per Cycle ((Count/Cycle))
system.cpu.totalIpc                          1.517053                       # IPC: Total IPC of All Threads ((Count/Cycle))
system.cpu.intRegfileReads                    3156999                       # Number of integer regfile reads (Count)
system.cpu.intRegfileWrites                   1194121                       # Number of integer regfile writes (Count)
system.cpu.vecRegfileReads                        174                       # number of vector regfile reads (Count)
system.cpu.ccRegfileReads                      565185                       # number of cc regfile reads (Count)
system.cpu.ccRegfileWrites                     565092                       # number of cc regfile writes (Count)
system.cpu.miscRegfileReads                     64097                       # number of misc regfile reads (Count)
system.cpu.miscRegfileWrites                       33                       # number of misc regfile writes (Count)
system.cpu.MemDepUnit__0.insertedLoads          64230                       # Number of loads inserted to the mem dependence unit. (Count)
system.cpu.MemDepUnit__0.insertedStores         64270                       # Number of stores inserted to the mem dependence unit. (Count)
system.cpu.MemDepUnit__0.conflictingLoads           25                       # Number of conflicting loads. (Count)
system.cpu.MemDepUnit__0.conflictingStores           44                       # Number of conflicting stores. (Count)
system.cpu.MemDepUnit__1.insertedLoads              0                       # Number of loads inserted to the mem dependence unit. (Count)
system.cpu.MemDepUnit__1.insertedStores             0                       # Number of stores inserted to the mem dependence unit. (Count)
system.cpu.MemDepUnit__1.conflictingLoads            0                       # Number of conflicting loads. (Count)
system.cpu.MemDepUnit__1.conflictingStores            0                       # Number of conflicting stores. (Count)
system.cpu.MemDepUnit__2.insertedLoads              0                       # Number of loads inserted to the mem dependence unit. (Count)
system.cpu.MemDepUnit__2.insertedStores             0                       # Number of stores inserted to the mem dependence unit. (Count)
system.cpu.MemDepUnit__2.conflictingLoads            0                       # Number of conflicting loads. (Count)
system.cpu.MemDepUnit__2.conflictingStores            0                       # Number of conflicting stores. (Count)
system.cpu.MemDepUnit__3.insertedLoads              0                       # Number of loads inserted to the mem dependence unit. (Count)
system.cpu.MemDepUnit__3.insertedStores             0                       # Number of stores inserted to the mem dependence unit. (Count)
system.cpu.MemDepUnit__3.conflictingLoads            0                       # Number of conflicting loads. (Count)
system.cpu.MemDepUnit__3.conflictingStores            0                       # Number of conflicting stores. (Count)
system.cpu.branchPred.lookups                   65986                       # Number of BP lookups (Count)
system.cpu.branchPred.condPredicted             64937                       # Number of conditional branches predicted (Count)
system.cpu.branchPred.condIncorrect               527                       # Number of conditional branches incorrect (Count)
system.cpu.branchPred.BTBLookups                64183                       # Number of BTB lookups (Count)
system.cpu.branchPred.BTBUpdates                  467                       # Number of BTB updates (Count)
system.cpu.branchPred.BTBHits                   63340                       # Number of BTB hits (Count)
system.cpu.branchPred.BTBHitRatio            0.986866                       # BTB Hit Ratio (Ratio)
system.cpu.branchPred.RASUsed                     327                       # Number of times the RAS was used to get a target. (Count)
system.cpu.branchPred.RASIncorrect                  0                       # Number of incorrect RAS predictions. (Count)
system.cpu.branchPred.indirectLookups              69                       # Number of indirect predictor lookups. (Count)
system.cpu.branchPred.indirectHits                  3                       # Number of indirect target hits. (Count)
system.cpu.branchPred.indirectMisses               66                       # Number of indirect misses. (Count)
system.cpu.branchPred.indirectMispredicted           22                       # Number of mispredicted indirect branches. (Count)
system.cpu.commit.commitSquashedInsts            5768                       # The number of squashed insts skipped by commit (Count)
system.cpu.commit.commitNonSpecStalls              39                       # The number of times commit has been forced to stall to communicate backwards (Count)
system.cpu.commit.branchMispredicts               340                       # The number of times a branch was mispredicted (Count)
system.cpu.commit.numCommittedDist::samples       893737                       # Number of insts commited each cycle (Count)
system.cpu.commit.numCommittedDist::mean     1.545964                       # Number of insts commited each cycle (Count)
system.cpu.commit.numCommittedDist::stdev     2.944658                       # Number of insts commited each cycle (Count)
system.cpu.commit.numCommittedDist::underflows            0      0.00%      0.00% # Number of insts commited each cycle (Count)
system.cpu.commit.numCommittedDist::0          661702     74.04%     74.04% # Number of insts commited each cycle (Count)
system.cpu.commit.numCommittedDist::1           43590      4.88%     78.91% # Number of insts commited each cycle (Count)
system.cpu.commit.numCommittedDist::2             468      0.05%     78.97% # Number of insts commited each cycle (Count)
system.cpu.commit.numCommittedDist::3             389      0.04%     79.01% # Number of insts commited each cycle (Count)
system.cpu.commit.numCommittedDist::4             166      0.02%     79.03% # Number of insts commited each cycle (Count)
system.cpu.commit.numCommittedDist::5           45805      5.13%     84.15% # Number of insts commited each cycle (Count)
system.cpu.commit.numCommittedDist::6           12445      1.39%     85.55% # Number of insts commited each cycle (Count)
system.cpu.commit.numCommittedDist::7            1743      0.20%     85.74% # Number of insts commited each cycle (Count)
system.cpu.commit.numCommittedDist::8          127429     14.26%    100.00% # Number of insts commited each cycle (Count)
system.cpu.commit.numCommittedDist::overflows            0      0.00%    100.00% # Number of insts commited each cycle (Count)
system.cpu.commit.numCommittedDist::min_value            0                       # Number of insts commited each cycle (Count)
system.cpu.commit.numCommittedDist::max_value            8                       # Number of insts commited each cycle (Count)
system.cpu.commit.numCommittedDist::total       893737                       # Number of insts commited each cycle (Count)
system.cpu.commit.instsCommitted              1380581                       # Number of instructions committed (Count)
system.cpu.commit.opsCommitted                1381685                       # Number of ops (including micro ops) committed (Count)
system.cpu.commit.memRefs                      126987                       # Number of memory references committed (Count)
system.cpu.commit.loads                         63369                       # Number of loads committed (Count)
system.cpu.commit.amos                              8                       # Number of atomic instructions committed (Count)
system.cpu.commit.membars                          14                       # Number of memory barriers committed (Count)
system.cpu.commit.branches                      63740                       # Number of branches committed (Count)
system.cpu.commit.vectorInstructions              102                       # Number of committed Vector instructions. (Count)
system.cpu.commit.floating                          0                       # Number of committed floating point instructions. (Count)
system.cpu.commit.integer                     1318461                       # Number of committed integer instructions. (Count)
system.cpu.commit.functionCalls                   131                       # Number of function calls committed. (Count)
system.cpu.commit.committedInstType_0::No_OpClass           15      0.00%      0.00% # Class of committed instruction (Count)
system.cpu.commit.committedInstType_0::IntAlu      1254646     90.81%     90.81% # Class of committed instruction (Count)
system.cpu.commit.committedInstType_0::IntMult            7      0.00%     90.81% # Class of committed instruction (Count)
system.cpu.commit.committedInstType_0::IntDiv            3      0.00%     90.81% # Class of committed instruction (Count)
system.cpu.commit.committedInstType_0::FloatAdd            0      0.00%     90.81% # Class of committed instruction (Count)
system.cpu.commit.committedInstType_0::FloatCmp            0      0.00%     90.81% # Class of committed instruction (Count)
system.cpu.commit.committedInstType_0::FloatCvt            0      0.00%     90.81% # Class of committed instruction (Count)
system.cpu.commit.committedInstType_0::FloatMult            0      0.00%     90.81% # Class of committed instruction (Count)
system.cpu.commit.committedInstType_0::FloatMultAcc            0      0.00%     90.81% # Class of committed instruction (Count)
system.cpu.commit.committedInstType_0::FloatDiv            0      0.00%     90.81% # Class of committed instruction (Count)
system.cpu.commit.committedInstType_0::FloatMisc            4      0.00%     90.81% # Class of committed instruction (Count)
system.cpu.commit.committedInstType_0::FloatSqrt            0      0.00%     90.81% # Class of committed instruction (Count)
system.cpu.commit.committedInstType_0::SimdAdd            4      0.00%     90.81% # Class of committed instruction (Count)
system.cpu.commit.committedInstType_0::SimdAddAcc            0      0.00%     90.81% # Class of committed instruction (Count)
system.cpu.commit.committedInstType_0::SimdAlu            6      0.00%     90.81% # Class of committed instruction (Count)
system.cpu.commit.committedInstType_0::SimdCmp            8      0.00%     90.81% # Class of committed instruction (Count)
system.cpu.commit.committedInstType_0::SimdCvt            0      0.00%     90.81% # Class of committed instruction (Count)
system.cpu.commit.committedInstType_0::SimdMisc            5      0.00%     90.81% # Class of committed instruction (Count)
system.cpu.commit.committedInstType_0::SimdMult            0      0.00%     90.81% # Class of committed instruction (Count)
system.cpu.commit.committedInstType_0::SimdMultAcc            0      0.00%     90.81% # Class of committed instruction (Count)
system.cpu.commit.committedInstType_0::SimdShift            0      0.00%     90.81% # Class of committed instruction (Count)
system.cpu.commit.committedInstType_0::SimdShiftAcc            0      0.00%     90.81% # Class of committed instruction (Count)
system.cpu.commit.committedInstType_0::SimdDiv            0      0.00%     90.81% # Class of committed instruction (Count)
system.cpu.commit.committedInstType_0::SimdSqrt            0      0.00%     90.81% # Class of committed instruction (Count)
system.cpu.commit.committedInstType_0::SimdFloatAdd            0      0.00%     90.81% # Class of committed instruction (Count)
system.cpu.commit.committedInstType_0::SimdFloatAlu            0      0.00%     90.81% # Class of committed instruction (Count)
system.cpu.commit.committedInstType_0::SimdFloatCmp            0      0.00%     90.81% # Class of committed instruction (Count)
system.cpu.commit.committedInstType_0::SimdFloatCvt            0      0.00%     90.81% # Class of committed instruction (Count)
system.cpu.commit.committedInstType_0::SimdFloatDiv            0      0.00%     90.81% # Class of committed instruction (Count)
system.cpu.commit.committedInstType_0::SimdFloatMisc            0      0.00%     90.81% # Class of committed instruction (Count)
system.cpu.commit.committedInstType_0::SimdFloatMult            0      0.00%     90.81% # Class of committed instruction (Count)
system.cpu.commit.committedInstType_0::SimdFloatMultAcc            0      0.00%     90.81% # Class of committed instruction (Count)
system.cpu.commit.committedInstType_0::SimdFloatSqrt            0      0.00%     90.81% # Class of committed instruction (Count)
system.cpu.commit.committedInstType_0::SimdReduceAdd            0      0.00%     90.81% # Class of committed instruction (Count)
system.cpu.commit.committedInstType_0::SimdReduceAlu            0      0.00%     90.81% # Class of committed instruction (Count)
system.cpu.commit.committedInstType_0::SimdReduceCmp            0      0.00%     90.81% # Class of committed instruction (Count)
system.cpu.commit.committedInstType_0::SimdFloatReduceAdd            0      0.00%     90.81% # Class of committed instruction (Count)
system.cpu.commit.committedInstType_0::SimdFloatReduceCmp            0      0.00%     90.81% # Class of committed instruction (Count)
system.cpu.commit.committedInstType_0::SimdAes            0      0.00%     90.81% # Class of committed instruction (Count)
system.cpu.commit.committedInstType_0::SimdAesMix            0      0.00%     90.81% # Class of committed instruction (Count)
system.cpu.commit.committedInstType_0::SimdSha1Hash            0      0.00%     90.81% # Class of committed instruction (Count)
system.cpu.commit.committedInstType_0::SimdSha1Hash2            0      0.00%     90.81% # Class of committed instruction (Count)
system.cpu.commit.committedInstType_0::SimdSha256Hash            0      0.00%     90.81% # Class of committed instruction (Count)
system.cpu.commit.committedInstType_0::SimdSha256Hash2            0      0.00%     90.81% # Class of committed instruction (Count)
system.cpu.commit.committedInstType_0::SimdShaSigma2            0      0.00%     90.81% # Class of committed instruction (Count)
system.cpu.commit.committedInstType_0::SimdShaSigma3            0      0.00%     90.81% # Class of committed instruction (Count)
system.cpu.commit.committedInstType_0::SimdPredAlu            0      0.00%     90.81% # Class of committed instruction (Count)
system.cpu.commit.committedInstType_0::MemRead        63369      4.59%     95.40% # Class of committed instruction (Count)
system.cpu.commit.committedInstType_0::MemWrite        63618      4.60%    100.00% # Class of committed instruction (Count)
system.cpu.commit.committedInstType_0::FloatMemRead            0      0.00%    100.00% # Class of committed instruction (Count)
system.cpu.commit.committedInstType_0::FloatMemWrite            0      0.00%    100.00% # Class of committed instruction (Count)
system.cpu.commit.committedInstType_0::IprAccess            0      0.00%    100.00% # Class of committed instruction (Count)
system.cpu.commit.committedInstType_0::InstPrefetch            0      0.00%    100.00% # Class of committed instruction (Count)
system.cpu.commit.committedInstType_0::total      1381685                       # Class of committed instruction (Count)
system.cpu.commit.commitEligibleSamples        127429                       # number cycles where commit BW limit reached (Cycle)
system.cpu.dcache.demandHits::cpu.data           1833                       # number of demand (read+write) hits (Count)
system.cpu.dcache.demandHits::total              1833                       # number of demand (read+write) hits (Count)
system.cpu.dcache.overallHits::cpu.data          1833                       # number of overall hits (Count)
system.cpu.dcache.overallHits::total             1833                       # number of overall hits (Count)
system.cpu.dcache.demandMisses::cpu.data       125688                       # number of demand (read+write) misses (Count)
system.cpu.dcache.demandMisses::total          125688                       # number of demand (read+write) misses (Count)
system.cpu.dcache.overallMisses::cpu.data       125688                       # number of overall misses (Count)
system.cpu.dcache.overallMisses::total         125688                       # number of overall misses (Count)
system.cpu.dcache.demandMissLatency::cpu.data   3700591636                       # number of demand (read+write) miss ticks (Tick)
system.cpu.dcache.demandMissLatency::total   3700591636                       # number of demand (read+write) miss ticks (Tick)
system.cpu.dcache.overallMissLatency::cpu.data   3700591636                       # number of overall miss ticks (Tick)
system.cpu.dcache.overallMissLatency::total   3700591636                       # number of overall miss ticks (Tick)
system.cpu.dcache.demandAccesses::cpu.data       127521                       # number of demand (read+write) accesses (Count)
system.cpu.dcache.demandAccesses::total        127521                       # number of demand (read+write) accesses (Count)
system.cpu.dcache.overallAccesses::cpu.data       127521                       # number of overall (read+write) accesses (Count)
system.cpu.dcache.overallAccesses::total       127521                       # number of overall (read+write) accesses (Count)
system.cpu.dcache.demandMissRate::cpu.data     0.985626                       # miss rate for demand accesses (Ratio)
system.cpu.dcache.demandMissRate::total      0.985626                       # miss rate for demand accesses (Ratio)
system.cpu.dcache.overallMissRate::cpu.data     0.985626                       # miss rate for overall accesses (Ratio)
system.cpu.dcache.overallMissRate::total     0.985626                       # miss rate for overall accesses (Ratio)
system.cpu.dcache.demandAvgMissLatency::cpu.data 29442.680574                       # average overall miss latency in ticks ((Tick/Count))
system.cpu.dcache.demandAvgMissLatency::total 29442.680574                       # average overall miss latency in ticks ((Tick/Count))
system.cpu.dcache.overallAvgMissLatency::cpu.data 29442.680574                       # average overall miss latency ((Tick/Count))
system.cpu.dcache.overallAvgMissLatency::total 29442.680574                       # average overall miss latency ((Tick/Count))
system.cpu.dcache.blockedCycles::no_mshrs       696746                       # number of cycles access was blocked (Cycle)
system.cpu.dcache.blockedCycles::no_targets            0                       # number of cycles access was blocked (Cycle)
system.cpu.dcache.blockedCauses::no_mshrs       125068                       # number of times access was blocked (Count)
system.cpu.dcache.blockedCauses::no_targets            0                       # number of times access was blocked (Count)
system.cpu.dcache.avgBlocked::no_mshrs       5.570937                       # average number of cycles each access was blocked ((Cycle/Count))
system.cpu.dcache.avgBlocked::no_targets          nan                       # average number of cycles each access was blocked ((Cycle/Count))
system.cpu.dcache.writebacks::writebacks        62201                       # number of writebacks (Count)
system.cpu.dcache.writebacks::total             62201                       # number of writebacks (Count)
system.cpu.dcache.demandMshrHits::cpu.data          447                       # number of demand (read+write) MSHR hits (Count)
system.cpu.dcache.demandMshrHits::total           447                       # number of demand (read+write) MSHR hits (Count)
system.cpu.dcache.overallMshrHits::cpu.data          447                       # number of overall MSHR hits (Count)
system.cpu.dcache.overallMshrHits::total          447                       # number of overall MSHR hits (Count)
system.cpu.dcache.demandMshrMisses::cpu.data       125241                       # number of demand (read+write) MSHR misses (Count)
system.cpu.dcache.demandMshrMisses::total       125241                       # number of demand (read+write) MSHR misses (Count)
system.cpu.dcache.overallMshrMisses::cpu.data       125241                       # number of overall MSHR misses (Count)
system.cpu.dcache.overallMshrMisses::total       125241                       # number of overall MSHR misses (Count)
system.cpu.dcache.demandMshrMissLatency::cpu.data   3413185662                       # number of demand (read+write) MSHR miss ticks (Tick)
system.cpu.dcache.demandMshrMissLatency::total   3413185662                       # number of demand (read+write) MSHR miss ticks (Tick)
system.cpu.dcache.overallMshrMissLatency::cpu.data   3413185662                       # number of overall MSHR miss ticks (Tick)
system.cpu.dcache.overallMshrMissLatency::total   3413185662                       # number of overall MSHR miss ticks (Tick)
system.cpu.dcache.demandMshrMissRate::cpu.data     0.982121                       # mshr miss ratio for demand accesses (Ratio)
system.cpu.dcache.demandMshrMissRate::total     0.982121                       # mshr miss ratio for demand accesses (Ratio)
system.cpu.dcache.overallMshrMissRate::cpu.data     0.982121                       # mshr miss ratio for overall accesses (Ratio)
system.cpu.dcache.overallMshrMissRate::total     0.982121                       # mshr miss ratio for overall accesses (Ratio)
system.cpu.dcache.demandAvgMshrMissLatency::cpu.data 27252.941625                       # average overall mshr miss latency ((Tick/Count))
system.cpu.dcache.demandAvgMshrMissLatency::total 27252.941625                       # average overall mshr miss latency ((Tick/Count))
system.cpu.dcache.overallAvgMshrMissLatency::cpu.data 27252.941625                       # average overall mshr miss latency ((Tick/Count))
system.cpu.dcache.overallAvgMshrMissLatency::total 27252.941625                       # average overall mshr miss latency ((Tick/Count))
system.cpu.dcache.replacements                 124219                       # number of replacements (Count)
system.cpu.dcache.LoadLockedReq.hits::cpu.data            5                       # number of LoadLockedReq hits (Count)
system.cpu.dcache.LoadLockedReq.hits::total            5                       # number of LoadLockedReq hits (Count)
system.cpu.dcache.LoadLockedReq.misses::cpu.data            2                       # number of LoadLockedReq misses (Count)
system.cpu.dcache.LoadLockedReq.misses::total            2                       # number of LoadLockedReq misses (Count)
system.cpu.dcache.LoadLockedReq.missLatency::cpu.data       152000                       # number of LoadLockedReq miss ticks (Tick)
system.cpu.dcache.LoadLockedReq.missLatency::total       152000                       # number of LoadLockedReq miss ticks (Tick)
system.cpu.dcache.LoadLockedReq.accesses::cpu.data            7                       # number of LoadLockedReq accesses(hits+misses) (Count)
system.cpu.dcache.LoadLockedReq.accesses::total            7                       # number of LoadLockedReq accesses(hits+misses) (Count)
system.cpu.dcache.LoadLockedReq.missRate::cpu.data     0.285714                       # miss rate for LoadLockedReq accesses (Ratio)
system.cpu.dcache.LoadLockedReq.missRate::total     0.285714                       # miss rate for LoadLockedReq accesses (Ratio)
system.cpu.dcache.LoadLockedReq.avgMissLatency::cpu.data        76000                       # average LoadLockedReq miss latency ((Tick/Count))
system.cpu.dcache.LoadLockedReq.avgMissLatency::total        76000                       # average LoadLockedReq miss latency ((Tick/Count))
system.cpu.dcache.LoadLockedReq.mshrMisses::cpu.data            2                       # number of LoadLockedReq MSHR misses (Count)
system.cpu.dcache.LoadLockedReq.mshrMisses::total            2                       # number of LoadLockedReq MSHR misses (Count)
system.cpu.dcache.LoadLockedReq.mshrMissLatency::cpu.data       148000                       # number of LoadLockedReq MSHR miss ticks (Tick)
system.cpu.dcache.LoadLockedReq.mshrMissLatency::total       148000                       # number of LoadLockedReq MSHR miss ticks (Tick)
system.cpu.dcache.LoadLockedReq.mshrMissRate::cpu.data     0.285714                       # mshr miss rate for LoadLockedReq accesses (Ratio)
system.cpu.dcache.LoadLockedReq.mshrMissRate::total     0.285714                       # mshr miss rate for LoadLockedReq accesses (Ratio)
system.cpu.dcache.LoadLockedReq.avgMshrMissLatency::cpu.data        74000                       # average LoadLockedReq mshr miss latency ((Tick/Count))
system.cpu.dcache.LoadLockedReq.avgMshrMissLatency::total        74000                       # average LoadLockedReq mshr miss latency ((Tick/Count))
system.cpu.dcache.ReadReq.hits::cpu.data         1175                       # number of ReadReq hits (Count)
system.cpu.dcache.ReadReq.hits::total            1175                       # number of ReadReq hits (Count)
system.cpu.dcache.ReadReq.misses::cpu.data        62739                       # number of ReadReq misses (Count)
system.cpu.dcache.ReadReq.misses::total         62739                       # number of ReadReq misses (Count)
system.cpu.dcache.ReadReq.missLatency::cpu.data   1772016000                       # number of ReadReq miss ticks (Tick)
system.cpu.dcache.ReadReq.missLatency::total   1772016000                       # number of ReadReq miss ticks (Tick)
system.cpu.dcache.ReadReq.accesses::cpu.data        63914                       # number of ReadReq accesses(hits+misses) (Count)
system.cpu.dcache.ReadReq.accesses::total        63914                       # number of ReadReq accesses(hits+misses) (Count)
system.cpu.dcache.ReadReq.missRate::cpu.data     0.981616                       # miss rate for ReadReq accesses (Ratio)
system.cpu.dcache.ReadReq.missRate::total     0.981616                       # miss rate for ReadReq accesses (Ratio)
system.cpu.dcache.ReadReq.avgMissLatency::cpu.data 28244.249988                       # average ReadReq miss latency ((Tick/Count))
system.cpu.dcache.ReadReq.avgMissLatency::total 28244.249988                       # average ReadReq miss latency ((Tick/Count))
system.cpu.dcache.ReadReq.mshrHits::cpu.data          112                       # number of ReadReq MSHR hits (Count)
system.cpu.dcache.ReadReq.mshrHits::total          112                       # number of ReadReq MSHR hits (Count)
system.cpu.dcache.ReadReq.mshrMisses::cpu.data        62627                       # number of ReadReq MSHR misses (Count)
system.cpu.dcache.ReadReq.mshrMisses::total        62627                       # number of ReadReq MSHR misses (Count)
system.cpu.dcache.ReadReq.mshrMissLatency::cpu.data   1638297000                       # number of ReadReq MSHR miss ticks (Tick)
system.cpu.dcache.ReadReq.mshrMissLatency::total   1638297000                       # number of ReadReq MSHR miss ticks (Tick)
system.cpu.dcache.ReadReq.mshrMissRate::cpu.data     0.979864                       # mshr miss rate for ReadReq accesses (Ratio)
system.cpu.dcache.ReadReq.mshrMissRate::total     0.979864                       # mshr miss rate for ReadReq accesses (Ratio)
system.cpu.dcache.ReadReq.avgMshrMissLatency::cpu.data 26159.595702                       # average ReadReq mshr miss latency ((Tick/Count))
system.cpu.dcache.ReadReq.avgMshrMissLatency::total 26159.595702                       # average ReadReq mshr miss latency ((Tick/Count))
system.cpu.dcache.StoreCondReq.hits::cpu.data            4                       # number of StoreCondReq hits (Count)
system.cpu.dcache.StoreCondReq.hits::total            4                       # number of StoreCondReq hits (Count)
system.cpu.dcache.StoreCondReq.accesses::cpu.data            4                       # number of StoreCondReq accesses(hits+misses) (Count)
system.cpu.dcache.StoreCondReq.accesses::total            4                       # number of StoreCondReq accesses(hits+misses) (Count)
system.cpu.dcache.SwapReq.hits::cpu.data            8                       # number of SwapReq hits (Count)
system.cpu.dcache.SwapReq.hits::total               8                       # number of SwapReq hits (Count)
system.cpu.dcache.SwapReq.accesses::cpu.data            8                       # number of SwapReq accesses(hits+misses) (Count)
system.cpu.dcache.SwapReq.accesses::total            8                       # number of SwapReq accesses(hits+misses) (Count)
system.cpu.dcache.WriteLineReq.misses::cpu.data            7                       # number of WriteLineReq misses (Count)
system.cpu.dcache.WriteLineReq.misses::total            7                       # number of WriteLineReq misses (Count)
system.cpu.dcache.WriteLineReq.missLatency::cpu.data       381997                       # number of WriteLineReq miss ticks (Tick)
system.cpu.dcache.WriteLineReq.missLatency::total       381997                       # number of WriteLineReq miss ticks (Tick)
system.cpu.dcache.WriteLineReq.accesses::cpu.data            7                       # number of WriteLineReq accesses(hits+misses) (Count)
system.cpu.dcache.WriteLineReq.accesses::total            7                       # number of WriteLineReq accesses(hits+misses) (Count)
system.cpu.dcache.WriteLineReq.missRate::cpu.data            1                       # miss rate for WriteLineReq accesses (Ratio)
system.cpu.dcache.WriteLineReq.missRate::total            1                       # miss rate for WriteLineReq accesses (Ratio)
system.cpu.dcache.WriteLineReq.avgMissLatency::cpu.data        54571                       # average WriteLineReq miss latency ((Tick/Count))
system.cpu.dcache.WriteLineReq.avgMissLatency::total        54571                       # average WriteLineReq miss latency ((Tick/Count))
system.cpu.dcache.WriteLineReq.mshrMisses::cpu.data            7                       # number of WriteLineReq MSHR misses (Count)
system.cpu.dcache.WriteLineReq.mshrMisses::total            7                       # number of WriteLineReq MSHR misses (Count)
system.cpu.dcache.WriteLineReq.mshrMissLatency::cpu.data       367997                       # number of WriteLineReq MSHR miss ticks (Tick)
system.cpu.dcache.WriteLineReq.mshrMissLatency::total       367997                       # number of WriteLineReq MSHR miss ticks (Tick)
system.cpu.dcache.WriteLineReq.mshrMissRate::cpu.data            1                       # mshr miss rate for WriteLineReq accesses (Ratio)
system.cpu.dcache.WriteLineReq.mshrMissRate::total            1                       # mshr miss rate for WriteLineReq accesses (Ratio)
system.cpu.dcache.WriteLineReq.avgMshrMissLatency::cpu.data        52571                       # average WriteLineReq mshr miss latency ((Tick/Count))
system.cpu.dcache.WriteLineReq.avgMshrMissLatency::total        52571                       # average WriteLineReq mshr miss latency ((Tick/Count))
system.cpu.dcache.WriteReq.hits::cpu.data          658                       # number of WriteReq hits (Count)
system.cpu.dcache.WriteReq.hits::total            658                       # number of WriteReq hits (Count)
system.cpu.dcache.WriteReq.misses::cpu.data        62942                       # number of WriteReq misses (Count)
system.cpu.dcache.WriteReq.misses::total        62942                       # number of WriteReq misses (Count)
system.cpu.dcache.WriteReq.missLatency::cpu.data   1928193639                       # number of WriteReq miss ticks (Tick)
system.cpu.dcache.WriteReq.missLatency::total   1928193639                       # number of WriteReq miss ticks (Tick)
system.cpu.dcache.WriteReq.accesses::cpu.data        63600                       # number of WriteReq accesses(hits+misses) (Count)
system.cpu.dcache.WriteReq.accesses::total        63600                       # number of WriteReq accesses(hits+misses) (Count)
system.cpu.dcache.WriteReq.missRate::cpu.data     0.989654                       # miss rate for WriteReq accesses (Ratio)
system.cpu.dcache.WriteReq.missRate::total     0.989654                       # miss rate for WriteReq accesses (Ratio)
system.cpu.dcache.WriteReq.avgMissLatency::cpu.data 30634.451384                       # average WriteReq miss latency ((Tick/Count))
system.cpu.dcache.WriteReq.avgMissLatency::total 30634.451384                       # average WriteReq miss latency ((Tick/Count))
system.cpu.dcache.WriteReq.mshrHits::cpu.data          335                       # number of WriteReq MSHR hits (Count)
system.cpu.dcache.WriteReq.mshrHits::total          335                       # number of WriteReq MSHR hits (Count)
system.cpu.dcache.WriteReq.mshrMisses::cpu.data        62607                       # number of WriteReq MSHR misses (Count)
system.cpu.dcache.WriteReq.mshrMisses::total        62607                       # number of WriteReq MSHR misses (Count)
system.cpu.dcache.WriteReq.mshrMissLatency::cpu.data   1774520665                       # number of WriteReq MSHR miss ticks (Tick)
system.cpu.dcache.WriteReq.mshrMissLatency::total   1774520665                       # number of WriteReq MSHR miss ticks (Tick)
system.cpu.dcache.WriteReq.mshrMissRate::cpu.data     0.984387                       # mshr miss rate for WriteReq accesses (Ratio)
system.cpu.dcache.WriteReq.mshrMissRate::total     0.984387                       # mshr miss rate for WriteReq accesses (Ratio)
system.cpu.dcache.WriteReq.avgMshrMissLatency::cpu.data 28343.806044                       # average WriteReq mshr miss latency ((Tick/Count))
system.cpu.dcache.WriteReq.avgMshrMissLatency::total 28343.806044                       # average WriteReq mshr miss latency ((Tick/Count))
system.cpu.dcache.power_state.pwrStateResidencyTicks::UNDEFINED    910020000                       # Cumulative time (in ticks) in various power states (Tick)
system.cpu.dcache.tags.tagsInUse           984.879410                       # Average ticks per tags in use ((Tick/Count))
system.cpu.dcache.tags.totalRefs               127093                       # Total number of references to valid blocks. (Count)
system.cpu.dcache.tags.sampledRefs             125243                       # Sample count of references to valid blocks. (Count)
system.cpu.dcache.tags.avgRefs               1.014771                       # Average number of references to valid blocks. ((Count/Count))
system.cpu.dcache.tags.warmupTick              222000                       # The tick when the warmup percentage was hit. (Tick)
system.cpu.dcache.tags.occupancies::cpu.data   984.879410                       # Average occupied blocks per tick, per requestor ((Count/Tick))
system.cpu.dcache.tags.avgOccs::cpu.data     0.961796                       # Average percentage of cache occupancy ((Ratio/Tick))
system.cpu.dcache.tags.avgOccs::total        0.961796                       # Average percentage of cache occupancy ((Ratio/Tick))
system.cpu.dcache.tags.occupanciesTaskId::1024         1024                       # Occupied blocks per task id (Count)
system.cpu.dcache.tags.ageTaskId_1024::0          893                       # Occupied blocks per task id, per block age (Count)
system.cpu.dcache.tags.ageTaskId_1024::1          131                       # Occupied blocks per task id, per block age (Count)
system.cpu.dcache.tags.ratioOccsTaskId::1024            1                       # Ratio of occupied blocks and all blocks, per task id (Ratio)
system.cpu.dcache.tags.tagAccesses             380323                       # Number of tag accesses (Count)
system.cpu.dcache.tags.dataAccesses            380323                       # Number of data accesses (Count)
system.cpu.dcache.tags.power_state.pwrStateResidencyTicks::UNDEFINED    910020000                       # Cumulative time (in ticks) in various power states (Tick)
system.cpu.decode.idleCycles                    44942                       # Number of cycles decode is idle (Cycle)
system.cpu.decode.blockedCycles                661259                       # Number of cycles decode is blocked (Cycle)
system.cpu.decode.runCycles                    123172                       # Number of cycles decode is running (Cycle)
system.cpu.decode.unblockCycles                 64961                       # Number of cycles decode is unblocking (Cycle)
system.cpu.decode.squashCycles                    362                       # Number of cycles decode is squashing (Cycle)
system.cpu.decode.branchResolved                63476                       # Number of times decode resolved a branch (Count)
system.cpu.decode.branchMispred                   191                       # Number of times decode detected a branch misprediction (Count)
system.cpu.decode.decodedInsts                1389405                       # Number of instructions handled by decode (Count)
system.cpu.decode.squashedInsts                   797                       # Number of squashed instructions handled by decode (Count)
system.cpu.fetch.icacheStallCycles             134821                       # Number of cycles fetch is stalled on an Icache miss (Cycle)
system.cpu.fetch.insts                        1390726                       # Number of instructions fetch has processed (Count)
system.cpu.fetch.branches                       65986                       # Number of branches that fetch encountered (Count)
system.cpu.fetch.predictedBranches              63670                       # Number of branches that fetch has predicted taken (Count)
system.cpu.fetch.cycles                        759326                       # Number of cycles fetch has run and was not squashing or blocked (Cycle)
system.cpu.fetch.squashCycles                    1098                       # Number of cycles fetch has spent squashing (Cycle)
system.cpu.fetch.cacheLines                    127208                       # Number of cache lines fetched (Count)
system.cpu.fetch.icacheSquashes                   348                       # Number of outstanding Icache misses that were squashed (Count)
system.cpu.fetch.nisnDist::samples             894696                       # Number of instructions fetched each cycle (Total) (Count)
system.cpu.fetch.nisnDist::mean              1.556843                       # Number of instructions fetched each cycle (Total) (Count)
system.cpu.fetch.nisnDist::stdev             2.785493                       # Number of instructions fetched each cycle (Total) (Count)
system.cpu.fetch.nisnDist::underflows               0      0.00%      0.00% # Number of instructions fetched each cycle (Total) (Count)
system.cpu.fetch.nisnDist::0                   623357     69.67%     69.67% # Number of instructions fetched each cycle (Total) (Count)
system.cpu.fetch.nisnDist::1                    18511      2.07%     71.74% # Number of instructions fetched each cycle (Total) (Count)
system.cpu.fetch.nisnDist::2                    18402      2.06%     73.80% # Number of instructions fetched each cycle (Total) (Count)
system.cpu.fetch.nisnDist::3                   100240     11.20%     85.00% # Number of instructions fetched each cycle (Total) (Count)
system.cpu.fetch.nisnDist::4                     4736      0.53%     85.53% # Number of instructions fetched each cycle (Total) (Count)
system.cpu.fetch.nisnDist::5                     2574      0.29%     85.82% # Number of instructions fetched each cycle (Total) (Count)
system.cpu.fetch.nisnDist::6                     2656      0.30%     86.12% # Number of instructions fetched each cycle (Total) (Count)
system.cpu.fetch.nisnDist::7                     4644      0.52%     86.64% # Number of instructions fetched each cycle (Total) (Count)
system.cpu.fetch.nisnDist::8                   119576     13.36%    100.00% # Number of instructions fetched each cycle (Total) (Count)
system.cpu.fetch.nisnDist::overflows                0      0.00%    100.00% # Number of instructions fetched each cycle (Total) (Count)
system.cpu.fetch.nisnDist::min_value                0                       # Number of instructions fetched each cycle (Total) (Count)
system.cpu.fetch.nisnDist::max_value                8                       # Number of instructions fetched each cycle (Total) (Count)
system.cpu.fetch.nisnDist::total               894696                       # Number of instructions fetched each cycle (Total) (Count)
system.cpu.fetch.branchRate                  0.072510                       # Number of branch fetches per cycle (Ratio)
system.cpu.fetch.rate                        1.528235                       # Number of inst fetches per cycle ((Count/Cycle))
system.cpu.icache.demandHits::cpu.inst         126710                       # number of demand (read+write) hits (Count)
system.cpu.icache.demandHits::total            126710                       # number of demand (read+write) hits (Count)
system.cpu.icache.overallHits::cpu.inst        126710                       # number of overall hits (Count)
system.cpu.icache.overallHits::total           126710                       # number of overall hits (Count)
system.cpu.icache.demandMisses::cpu.inst          498                       # number of demand (read+write) misses (Count)
system.cpu.icache.demandMisses::total             498                       # number of demand (read+write) misses (Count)
system.cpu.icache.overallMisses::cpu.inst          498                       # number of overall misses (Count)
system.cpu.icache.overallMisses::total            498                       # number of overall misses (Count)
system.cpu.icache.demandMissLatency::cpu.inst     45540000                       # number of demand (read+write) miss ticks (Tick)
system.cpu.icache.demandMissLatency::total     45540000                       # number of demand (read+write) miss ticks (Tick)
system.cpu.icache.overallMissLatency::cpu.inst     45540000                       # number of overall miss ticks (Tick)
system.cpu.icache.overallMissLatency::total     45540000                       # number of overall miss ticks (Tick)
system.cpu.icache.demandAccesses::cpu.inst       127208                       # number of demand (read+write) accesses (Count)
system.cpu.icache.demandAccesses::total        127208                       # number of demand (read+write) accesses (Count)
system.cpu.icache.overallAccesses::cpu.inst       127208                       # number of overall (read+write) accesses (Count)
system.cpu.icache.overallAccesses::total       127208                       # number of overall (read+write) accesses (Count)
system.cpu.icache.demandMissRate::cpu.inst     0.003915                       # miss rate for demand accesses (Ratio)
system.cpu.icache.demandMissRate::total      0.003915                       # miss rate for demand accesses (Ratio)
system.cpu.icache.overallMissRate::cpu.inst     0.003915                       # miss rate for overall accesses (Ratio)
system.cpu.icache.overallMissRate::total     0.003915                       # miss rate for overall accesses (Ratio)
system.cpu.icache.demandAvgMissLatency::cpu.inst 91445.783133                       # average overall miss latency in ticks ((Tick/Count))
system.cpu.icache.demandAvgMissLatency::total 91445.783133                       # average overall miss latency in ticks ((Tick/Count))
system.cpu.icache.overallAvgMissLatency::cpu.inst 91445.783133                       # average overall miss latency ((Tick/Count))
system.cpu.icache.overallAvgMissLatency::total 91445.783133                       # average overall miss latency ((Tick/Count))
system.cpu.icache.blockedCycles::no_mshrs           81                       # number of cycles access was blocked (Cycle)
system.cpu.icache.blockedCycles::no_targets            0                       # number of cycles access was blocked (Cycle)
system.cpu.icache.blockedCauses::no_mshrs            1                       # number of times access was blocked (Count)
system.cpu.icache.blockedCauses::no_targets            0                       # number of times access was blocked (Count)
system.cpu.icache.avgBlocked::no_mshrs             81                       # average number of cycles each access was blocked ((Cycle/Count))
system.cpu.icache.avgBlocked::no_targets          nan                       # average number of cycles each access was blocked ((Cycle/Count))
system.cpu.icache.demandMshrHits::cpu.inst          135                       # number of demand (read+write) MSHR hits (Count)
system.cpu.icache.demandMshrHits::total           135                       # number of demand (read+write) MSHR hits (Count)
system.cpu.icache.overallMshrHits::cpu.inst          135                       # number of overall MSHR hits (Count)
system.cpu.icache.overallMshrHits::total          135                       # number of overall MSHR hits (Count)
system.cpu.icache.demandMshrMisses::cpu.inst          363                       # number of demand (read+write) MSHR misses (Count)
system.cpu.icache.demandMshrMisses::total          363                       # number of demand (read+write) MSHR misses (Count)
system.cpu.icache.overallMshrMisses::cpu.inst          363                       # number of overall MSHR misses (Count)
system.cpu.icache.overallMshrMisses::total          363                       # number of overall MSHR misses (Count)
system.cpu.icache.demandMshrMissLatency::cpu.inst     35900000                       # number of demand (read+write) MSHR miss ticks (Tick)
system.cpu.icache.demandMshrMissLatency::total     35900000                       # number of demand (read+write) MSHR miss ticks (Tick)
system.cpu.icache.overallMshrMissLatency::cpu.inst     35900000                       # number of overall MSHR miss ticks (Tick)
system.cpu.icache.overallMshrMissLatency::total     35900000                       # number of overall MSHR miss ticks (Tick)
system.cpu.icache.demandMshrMissRate::cpu.inst     0.002854                       # mshr miss ratio for demand accesses (Ratio)
system.cpu.icache.demandMshrMissRate::total     0.002854                       # mshr miss ratio for demand accesses (Ratio)
system.cpu.icache.overallMshrMissRate::cpu.inst     0.002854                       # mshr miss ratio for overall accesses (Ratio)
system.cpu.icache.overallMshrMissRate::total     0.002854                       # mshr miss ratio for overall accesses (Ratio)
system.cpu.icache.demandAvgMshrMissLatency::cpu.inst 98898.071625                       # average overall mshr miss latency ((Tick/Count))
system.cpu.icache.demandAvgMshrMissLatency::total 98898.071625                       # average overall mshr miss latency ((Tick/Count))
system.cpu.icache.overallAvgMshrMissLatency::cpu.inst 98898.071625                       # average overall mshr miss latency ((Tick/Count))
system.cpu.icache.overallAvgMshrMissLatency::total 98898.071625                       # average overall mshr miss latency ((Tick/Count))
system.cpu.icache.replacements                    130                       # number of replacements (Count)
system.cpu.icache.ReadReq.hits::cpu.inst       126710                       # number of ReadReq hits (Count)
system.cpu.icache.ReadReq.hits::total          126710                       # number of ReadReq hits (Count)
system.cpu.icache.ReadReq.misses::cpu.inst          498                       # number of ReadReq misses (Count)
system.cpu.icache.ReadReq.misses::total           498                       # number of ReadReq misses (Count)
system.cpu.icache.ReadReq.missLatency::cpu.inst     45540000                       # number of ReadReq miss ticks (Tick)
system.cpu.icache.ReadReq.missLatency::total     45540000                       # number of ReadReq miss ticks (Tick)
system.cpu.icache.ReadReq.accesses::cpu.inst       127208                       # number of ReadReq accesses(hits+misses) (Count)
system.cpu.icache.ReadReq.accesses::total       127208                       # number of ReadReq accesses(hits+misses) (Count)
system.cpu.icache.ReadReq.missRate::cpu.inst     0.003915                       # miss rate for ReadReq accesses (Ratio)
system.cpu.icache.ReadReq.missRate::total     0.003915                       # miss rate for ReadReq accesses (Ratio)
system.cpu.icache.ReadReq.avgMissLatency::cpu.inst 91445.783133                       # average ReadReq miss latency ((Tick/Count))
system.cpu.icache.ReadReq.avgMissLatency::total 91445.783133                       # average ReadReq miss latency ((Tick/Count))
system.cpu.icache.ReadReq.mshrHits::cpu.inst          135                       # number of ReadReq MSHR hits (Count)
system.cpu.icache.ReadReq.mshrHits::total          135                       # number of ReadReq MSHR hits (Count)
system.cpu.icache.ReadReq.mshrMisses::cpu.inst          363                       # number of ReadReq MSHR misses (Count)
system.cpu.icache.ReadReq.mshrMisses::total          363                       # number of ReadReq MSHR misses (Count)
system.cpu.icache.ReadReq.mshrMissLatency::cpu.inst     35900000                       # number of ReadReq MSHR miss ticks (Tick)
system.cpu.icache.ReadReq.mshrMissLatency::total     35900000                       # number of ReadReq MSHR miss ticks (Tick)
system.cpu.icache.ReadReq.mshrMissRate::cpu.inst     0.002854                       # mshr miss rate for ReadReq accesses (Ratio)
system.cpu.icache.ReadReq.mshrMissRate::total     0.002854                       # mshr miss rate for ReadReq accesses (Ratio)
system.cpu.icache.ReadReq.avgMshrMissLatency::cpu.inst 98898.071625                       # average ReadReq mshr miss latency ((Tick/Count))
system.cpu.icache.ReadReq.avgMshrMissLatency::total 98898.071625                       # average ReadReq mshr miss latency ((Tick/Count))
system.cpu.icache.power_state.pwrStateResidencyTicks::UNDEFINED    910020000                       # Cumulative time (in ticks) in various power states (Tick)
system.cpu.icache.tags.tagsInUse           202.742671                       # Average ticks per tags in use ((Tick/Count))
system.cpu.icache.tags.totalRefs               127072                       # Total number of references to valid blocks. (Count)
system.cpu.icache.tags.sampledRefs                362                       # Sample count of references to valid blocks. (Count)
system.cpu.icache.tags.avgRefs             351.027624                       # Average number of references to valid blocks. ((Count/Count))
system.cpu.icache.tags.warmupTick              107000                       # The tick when the warmup percentage was hit. (Tick)
system.cpu.icache.tags.occupancies::cpu.inst   202.742671                       # Average occupied blocks per tick, per requestor ((Count/Tick))
system.cpu.icache.tags.avgOccs::cpu.inst     0.791964                       # Average percentage of cache occupancy ((Ratio/Tick))
system.cpu.icache.tags.avgOccs::total        0.791964                       # Average percentage of cache occupancy ((Ratio/Tick))
system.cpu.icache.tags.occupanciesTaskId::1024          232                       # Occupied blocks per task id (Count)
system.cpu.icache.tags.ageTaskId_1024::0           43                       # Occupied blocks per task id, per block age (Count)
system.cpu.icache.tags.ageTaskId_1024::2          189                       # Occupied blocks per task id, per block age (Count)
system.cpu.icache.tags.ratioOccsTaskId::1024     0.906250                       # Ratio of occupied blocks and all blocks, per task id (Ratio)
system.cpu.icache.tags.tagAccesses             254778                       # Number of tag accesses (Count)
system.cpu.icache.tags.dataAccesses            254778                       # Number of data accesses (Count)
system.cpu.icache.tags.power_state.pwrStateResidencyTicks::UNDEFINED    910020000                       # Cumulative time (in ticks) in various power states (Tick)
system.cpu.iew.idleCycles                           0                       # Number of cycles IEW is idle (Cycle)
system.cpu.iew.squashCycles                       362                       # Number of cycles IEW is squashing (Cycle)
system.cpu.iew.blockCycles                        755                       # Number of cycles IEW is blocking (Cycle)
system.cpu.iew.unblockCycles                        5                       # Number of cycles IEW is unblocking (Cycle)
system.cpu.iew.dispatchedInsts                1387505                       # Number of instructions dispatched to IQ (Count)
system.cpu.iew.dispSquashedInsts                   63                       # Number of squashed instructions skipped by dispatch (Count)
system.cpu.iew.dispLoadInsts                    64230                       # Number of dispatched load instructions (Count)
system.cpu.iew.dispStoreInsts                   64270                       # Number of dispatched store instructions (Count)
system.cpu.iew.dispNonSpecInsts                    68                       # Number of dispatched non-speculative instructions (Count)
system.cpu.iew.iqFullEvents                         5                       # Number of times the IQ has become full, causing a stall (Count)
system.cpu.iew.lsqFullEvents                        0                       # Number of times the LSQ has become full, causing a stall (Count)
system.cpu.iew.memOrderViolationEvents              5                       # Number of memory order violations (Count)
system.cpu.iew.predictedTakenIncorrect             45                       # Number of branches that were predicted taken incorrectly (Count)
system.cpu.iew.predictedNotTakenIncorrect          333                       # Number of branches that were predicted not taken incorrectly (Count)
system.cpu.iew.branchMispredicts                  378                       # Number of branch mispredicts detected at execute (Count)
system.cpu.iew.instsToCommit                  1385310                       # Cumulative count of insts sent to commit (Count)
system.cpu.iew.writebackCount                 1385124                       # Cumulative count of insts written-back (Count)
system.cpu.iew.producerInst                   1120126                       # Number of instructions producing a value (Count)
system.cpu.iew.consumerInst                   1588706                       # Number of instructions consuming a value (Count)
system.cpu.iew.wbRate                        1.522079                       # Insts written-back per cycle ((Count/Cycle))
system.cpu.iew.wbFanout                      0.705056                       # Average fanout of values written-back ((Count/Count))
system.cpu.lsq0.forwLoads                          14                       # Number of loads that had data forwarded from stores (Count)
system.cpu.lsq0.squashedLoads                     861                       # Number of loads squashed (Count)
system.cpu.lsq0.ignoredResponses                    0                       # Number of memory responses ignored because the instruction is squashed (Count)
system.cpu.lsq0.memOrderViolation                   5                       # Number of memory ordering violations (Count)
system.cpu.lsq0.squashedStores                    652                       # Number of stores squashed (Count)
system.cpu.lsq0.rescheduledLoads                   12                       # Number of loads that were rescheduled (Count)
system.cpu.lsq0.blockedByCache                 125063                       # Number of times an access to memory failed due to the cache being blocked (Count)
system.cpu.lsq0.loadToUse::samples              63369                       # Distribution of cycle latency between the first time a load is issued and its completion (Unspecified)
system.cpu.lsq0.loadToUse::mean            111.818208                       # Distribution of cycle latency between the first time a load is issued and its completion (Unspecified)
system.cpu.lsq0.loadToUse::stdev            51.334437                       # Distribution of cycle latency between the first time a load is issued and its completion (Unspecified)
system.cpu.lsq0.loadToUse::0-9                    735      1.16%      1.16% # Distribution of cycle latency between the first time a load is issued and its completion (Unspecified)
system.cpu.lsq0.loadToUse::10-19                    7      0.01%      1.17% # Distribution of cycle latency between the first time a load is issued and its completion (Unspecified)
system.cpu.lsq0.loadToUse::20-29                 1322      2.09%      3.26% # Distribution of cycle latency between the first time a load is issued and its completion (Unspecified)
[...]
system.mem_ctrl.requestorReadTotalLat::cpu.inst      9930500                       # Per-requestor read total memory access latency (Tick)
system.mem_ctrl.requestorReadTotalLat::cpu.data     53961500                       # Per-requestor read total memory access latency (Tick)
system.mem_ctrl.requestorReadAvgLat::cpu.inst     28951.90                       # Per-requestor read average memory access latency ((Tick/Count))
system.mem_ctrl.requestorReadAvgLat::cpu.data     24025.60                       # Per-requestor read average memory access latency ((Tick/Count))
system.mem_ctrl.dram.bytesRead::cpu.inst        21952                       # Number of bytes read from this memory (Byte)
system.mem_ctrl.dram.bytesRead::cpu.data       143744                       # Number of bytes read from this memory (Byte)
system.mem_ctrl.dram.bytesRead::total          165696                       # Number of bytes read from this memory (Byte)
system.mem_ctrl.dram.bytesInstRead::cpu.inst        21952                       # Number of instructions bytes read from this memory (Byte)
system.mem_ctrl.dram.bytesInstRead::total        21952                       # Number of instructions bytes read from this memory (Byte)
system.mem_ctrl.dram.numReads::cpu.inst           343                       # Number of read requests responded to by this memory (Count)
system.mem_ctrl.dram.numReads::cpu.data          2246                       # Number of read requests responded to by this memory (Count)
system.mem_ctrl.dram.numReads::total             2589                       # Number of read requests responded to by this memory (Count)
system.mem_ctrl.dram.bwRead::cpu.inst        24122547                       # Total read bandwidth from this memory ((Byte/Second))
system.mem_ctrl.dram.bwRead::cpu.data       157956968                       # Total read bandwidth from this memory ((Byte/Second))
system.mem_ctrl.dram.bwRead::total          182079515                       # Total read bandwidth from this memory ((Byte/Second))
system.mem_ctrl.dram.bwInstRead::cpu.inst     24122547                       # Instruction read bandwidth from this memory ((Byte/Second))
system.mem_ctrl.dram.bwInstRead::total       24122547                       # Instruction read bandwidth from this memory ((Byte/Second))
system.mem_ctrl.dram.bwTotal::cpu.inst       24122547                       # Total bandwidth to/from this memory ((Byte/Second))
system.mem_ctrl.dram.bwTotal::cpu.data      157956968                       # Total bandwidth to/from this memory ((Byte/Second))
system.mem_ctrl.dram.bwTotal::total         182079515                       # Total bandwidth to/from this memory ((Byte/Second))
system.mem_ctrl.dram.readBursts                  2589                       # Number of DRAM read bursts (Count)
system.mem_ctrl.dram.writeBursts                    0                       # Number of DRAM write bursts (Count)
system.mem_ctrl.dram.perBankRdBursts::0           240                       # Per bank write bursts (Count)
system.mem_ctrl.dram.perBankRdBursts::1           200                       # Per bank write bursts (Count)
system.mem_ctrl.dram.perBankRdBursts::2           162                       # Per bank write bursts (Count)
system.mem_ctrl.dram.perBankRdBursts::3           131                       # Per bank write bursts (Count)
system.mem_ctrl.dram.perBankRdBursts::4           147                       # Per bank write bursts (Count)
system.mem_ctrl.dram.perBankRdBursts::5           229                       # Per bank write bursts (Count)
system.mem_ctrl.dram.perBankRdBursts::6            99                       # Per bank write bursts (Count)
system.mem_ctrl.dram.perBankRdBursts::7           142                       # Per bank write bursts (Count)
system.mem_ctrl.dram.perBankRdBursts::8           164                       # Per bank write bursts (Count)
system.mem_ctrl.dram.perBankRdBursts::9           160                       # Per bank write bursts (Count)
system.mem_ctrl.dram.perBankRdBursts::10          134                       # Per bank write bursts (Count)
system.mem_ctrl.dram.perBankRdBursts::11          158                       # Per bank write bursts (Count)
system.mem_ctrl.dram.perBankRdBursts::12          141                       # Per bank write bursts (Count)
system.mem_ctrl.dram.perBankRdBursts::13          147                       # Per bank write bursts (Count)
system.mem_ctrl.dram.perBankRdBursts::14          181                       # Per bank write bursts (Count)
system.mem_ctrl.dram.perBankRdBursts::15          154                       # Per bank write bursts (Count)
system.mem_ctrl.dram.perBankWrBursts::0             0                       # Per bank write bursts (Count)
system.mem_ctrl.dram.perBankWrBursts::1             0                       # Per bank write bursts (Count)
system.mem_ctrl.dram.perBankWrBursts::2             0                       # Per bank write bursts (Count)
system.mem_ctrl.dram.perBankWrBursts::3             0                       # Per bank write bursts (Count)
system.mem_ctrl.dram.perBankWrBursts::4             0                       # Per bank write bursts (Count)
system.mem_ctrl.dram.perBankWrBursts::5             0                       # Per bank write bursts (Count)
system.mem_ctrl.dram.perBankWrBursts::6             0                       # Per bank write bursts (Count)
system.mem_ctrl.dram.perBankWrBursts::7             0                       # Per bank write bursts (Count)
system.mem_ctrl.dram.perBankWrBursts::8             0                       # Per bank write bursts (Count)
system.mem_ctrl.dram.perBankWrBursts::9             0                       # Per bank write bursts (Count)
system.mem_ctrl.dram.perBankWrBursts::10            0                       # Per bank write bursts (Count)
system.mem_ctrl.dram.perBankWrBursts::11            0                       # Per bank write bursts (Count)
system.mem_ctrl.dram.perBankWrBursts::12            0                       # Per bank write bursts (Count)
system.mem_ctrl.dram.perBankWrBursts::13            0                       # Per bank write bursts (Count)
system.mem_ctrl.dram.perBankWrBursts::14            0                       # Per bank write bursts (Count)
system.mem_ctrl.dram.perBankWrBursts::15            0                       # Per bank write bursts (Count)
system.mem_ctrl.dram.totQLat                 15348250                       # Total ticks spent queuing (Tick)
system.mem_ctrl.dram.totBusLat               12945000                       # Total ticks spent in databus transfers (Tick)
system.mem_ctrl.dram.totMemAccLat            63892000                       # Total ticks spent from burst creation until serviced by the DRAM (Tick)
system.mem_ctrl.dram.avgQLat                  5928.25                       # Average queueing delay per DRAM burst ((Tick/Count))
system.mem_ctrl.dram.avgBusLat                5000.00                       # Average bus latency per DRAM burst ((Tick/Count))
system.mem_ctrl.dram.avgMemAccLat            24678.25                       # Average memory access latency per DRAM burst ((Tick/Count))
system.mem_ctrl.dram.readRowHits                 2320                       # Number of row buffer hits during reads (Count)
system.mem_ctrl.dram.writeRowHits                   0                       # Number of row buffer hits during writes (Count)
system.mem_ctrl.dram.readRowHitRate             89.61                       # Row buffer hit rate for reads (Ratio)
system.mem_ctrl.dram.writeRowHitRate              nan                       # Row buffer hit rate for writes (Ratio)
system.mem_ctrl.dram.bytesPerActivate::samples          260                       # Bytes accessed per row activation (Byte)
system.mem_ctrl.dram.bytesPerActivate::mean   630.153846                       # Bytes accessed per row activation (Byte)
system.mem_ctrl.dram.bytesPerActivate::gmean   421.183031                       # Bytes accessed per row activation (Byte)
system.mem_ctrl.dram.bytesPerActivate::stdev   412.968507                       # Bytes accessed per row activation (Byte)
system.mem_ctrl.dram.bytesPerActivate::0-127           40     15.38%     15.38% # Bytes accessed per row activation (Byte)
system.mem_ctrl.dram.bytesPerActivate::128-255           37     14.23%     29.62% # Bytes accessed per row activation (Byte)
system.mem_ctrl.dram.bytesPerActivate::256-383           20      7.69%     37.31% # Bytes accessed per row activation (Byte)
system.mem_ctrl.dram.bytesPerActivate::384-511           14      5.38%     42.69% # Bytes accessed per row activation (Byte)
system.mem_ctrl.dram.bytesPerActivate::512-639            8      3.08%     45.77% # Bytes accessed per row activation (Byte)
system.mem_ctrl.dram.bytesPerActivate::640-767            7      2.69%     48.46% # Bytes accessed per row activation (Byte)
system.mem_ctrl.dram.bytesPerActivate::768-895            5      1.92%     50.38% # Bytes accessed per row activation (Byte)
system.mem_ctrl.dram.bytesPerActivate::896-1023            7      2.69%     53.08% # Bytes accessed per row activation (Byte)
system.mem_ctrl.dram.bytesPerActivate::1024-1151          122     46.92%    100.00% # Bytes accessed per row activation (Byte)
system.mem_ctrl.dram.bytesPerActivate::total          260                       # Bytes accessed per row activation (Byte)
system.mem_ctrl.dram.bytesRead                 165696                       # Total bytes read (Byte)
system.mem_ctrl.dram.bytesWritten                   0                       # Total bytes written (Byte)
system.mem_ctrl.dram.avgRdBW               182.079515                       # Average DRAM read bandwidth in MiBytes/s ((Byte/Second))
system.mem_ctrl.dram.avgWrBW                        0                       # Average DRAM write bandwidth in MiBytes/s ((Byte/Second))
system.mem_ctrl.dram.peakBW                  12800.00                       # Theoretical peak bandwidth in MiByte/s ((Byte/Second))
system.mem_ctrl.dram.busUtil                     1.42                       # Data bus utilization in percentage (Ratio)
system.mem_ctrl.dram.busUtilRead                 1.42                       # Data bus utilization in percentage for reads (Ratio)
system.mem_ctrl.dram.busUtilWrite                0.00                       # Data bus utilization in percentage for writes (Ratio)
system.mem_ctrl.dram.pageHitRate                89.61                       # Row buffer hit rate, read and write combined (Ratio)
system.mem_ctrl.dram.power_state.pwrStateResidencyTicks::UNDEFINED    910020000                       # Cumulative time (in ticks) in various power states (Tick)
system.mem_ctrl.dram.rank0.actEnergy          1085280                       # Energy for activate commands per rank (pJ) (Joule)
system.mem_ctrl.dram.rank0.preEnergy           554070                       # Energy for precharge commands per rank (pJ) (Joule)
system.mem_ctrl.dram.rank0.readEnergy         9639000                       # Energy for read commands per rank (pJ) (Joule)
system.mem_ctrl.dram.rank0.writeEnergy              0                       # Energy for write commands per rank (pJ) (Joule)
system.mem_ctrl.dram.rank0.refreshEnergy 71298240.000000                       # Energy for refresh commands per rank (pJ) (Joule)
system.mem_ctrl.dram.rank0.actBackEnergy     48158160                       # Energy for active background per rank (pJ) (Joule)
system.mem_ctrl.dram.rank0.preBackEnergy    308893440                       # Energy for precharge background per rank (pJ) (Joule)
system.mem_ctrl.dram.rank0.actPowerDownEnergy            0                       # Energy for active power-down per rank (pJ) (Joule)
system.mem_ctrl.dram.rank0.prePowerDownEnergy            0                       # Energy for precharge power-down per rank (pJ) (Joule)
system.mem_ctrl.dram.rank0.selfRefreshEnergy            0                       # Energy for self refresh per rank (pJ) (Joule)
system.mem_ctrl.dram.rank0.totalEnergy      439628190                       # Total energy per rank (pJ) (Joule)
system.mem_ctrl.dram.rank0.averagePower    483.097284                       # Core power per rank (mW) (Watt)
system.mem_ctrl.dram.rank0.totalIdleTime            0                       # Total Idle time Per DRAM Rank (Tick)
system.mem_ctrl.dram.rank0.pwrStateTime::IDLE    802371250                       # Time in different power states (Tick)
system.mem_ctrl.dram.rank0.pwrStateTime::REF     30160000                       # Time in different power states (Tick)
system.mem_ctrl.dram.rank0.pwrStateTime::SREF            0                       # Time in different power states (Tick)
system.mem_ctrl.dram.rank0.pwrStateTime::PRE_PDN            0                       # Time in different power states (Tick)
system.mem_ctrl.dram.rank0.pwrStateTime::ACT     77488750                       # Time in different power states (Tick)
system.mem_ctrl.dram.rank0.pwrStateTime::ACT_PDN            0                       # Time in different power states (Tick)
system.mem_ctrl.dram.rank1.actEnergy           835380                       # Energy for activate commands per rank (pJ) (Joule)
system.mem_ctrl.dram.rank1.preEnergy           432630                       # Energy for precharge commands per rank (pJ) (Joule)
system.mem_ctrl.dram.rank1.readEnergy         8846460                       # Energy for read commands per rank (pJ) (Joule)
system.mem_ctrl.dram.rank1.writeEnergy              0                       # Energy for write commands per rank (pJ) (Joule)
system.mem_ctrl.dram.rank1.refreshEnergy 71298240.000000                       # Energy for refresh commands per rank (pJ) (Joule)
system.mem_ctrl.dram.rank1.actBackEnergy     47722110                       # Energy for active background per rank (pJ) (Joule)
system.mem_ctrl.dram.rank1.preBackEnergy    309260640                       # Energy for precharge background per rank (pJ) (Joule)
system.mem_ctrl.dram.rank1.actPowerDownEnergy            0                       # Energy for active power-down per rank (pJ) (Joule)
system.mem_ctrl.dram.rank1.prePowerDownEnergy            0                       # Energy for precharge power-down per rank (pJ) (Joule)
system.mem_ctrl.dram.rank1.selfRefreshEnergy            0                       # Energy for self refresh per rank (pJ) (Joule)
system.mem_ctrl.dram.rank1.totalEnergy      438395460                       # Total energy per rank (pJ) (Joule)
system.mem_ctrl.dram.rank1.averagePower    481.742665                       # Core power per rank (mW) (Watt)
system.mem_ctrl.dram.rank1.totalIdleTime            0                       # Total Idle time Per DRAM Rank (Tick)
system.mem_ctrl.dram.rank1.pwrStateTime::IDLE    803317000                       # Time in different power states (Tick)
system.mem_ctrl.dram.rank1.pwrStateTime::REF     30160000                       # Time in different power states (Tick)
system.mem_ctrl.dram.rank1.pwrStateTime::SREF            0                       # Time in different power states (Tick)
system.mem_ctrl.dram.rank1.pwrStateTime::PRE_PDN            0                       # Time in different power states (Tick)
system.mem_ctrl.dram.rank1.pwrStateTime::ACT     76543000                       # Time in different power states (Tick)
system.mem_ctrl.dram.rank1.pwrStateTime::ACT_PDN            0                       # Time in different power states (Tick)
system.mem_ctrl.power_state.pwrStateResidencyTicks::UNDEFINED    910020000                       # Cumulative time (in ticks) in various power states (Tick)
system.membus.transDist::ReadResp                1472                       # Transaction distribution (Count)
system.membus.transDist::ReadExReq               1117                       # Transaction distribution (Count)
system.membus.transDist::ReadExResp              1117                       # Transaction distribution (Count)
system.membus.transDist::ReadSharedReq           1472                       # Transaction distribution (Count)
system.membus.transDist::InvalidateReq              7                       # Transaction distribution (Count)
system.membus.pktCount_system.l2cache.mem_side_port::system.mem_ctrl.port         5185                       # Packet count per connected requestor and responder (Count)
system.membus.pktCount::total                    5185                       # Packet count per connected requestor and responder (Count)
system.membus.pktSize_system.l2cache.mem_side_port::system.mem_ctrl.port       165696                       # Cumulative packet size per connected requestor and responder (Byte)
system.membus.pktSize::total                   165696                       # Cumulative packet size per connected requestor and responder (Byte)
system.membus.snoops                                0                       # Total snoops (Count)
system.membus.snoopTraffic                          0                       # Total snoop traffic (Byte)
system.membus.snoopFanout::samples               2596                       # Request fanout histogram (Count)
system.membus.snoopFanout::mean                     0                       # Request fanout histogram (Count)
system.membus.snoopFanout::stdev                    0                       # Request fanout histogram (Count)
system.membus.snoopFanout::underflows               0      0.00%      0.00% # Request fanout histogram (Count)
system.membus.snoopFanout::0                     2596    100.00%    100.00% # Request fanout histogram (Count)
system.membus.snoopFanout::1                        0      0.00%    100.00% # Request fanout histogram (Count)
system.membus.snoopFanout::overflows                0      0.00%    100.00% # Request fanout histogram (Count)
system.membus.snoopFanout::min_value                0                       # Request fanout histogram (Count)
system.membus.snoopFanout::max_value                0                       # Request fanout histogram (Count)
system.membus.snoopFanout::total                 2596                       # Request fanout histogram (Count)
system.membus.power_state.pwrStateResidencyTicks::UNDEFINED    910020000                       # Cumulative time (in ticks) in various power states (Tick)
system.membus.reqLayer0.occupancy             2596000                       # Layer occupancy (ticks) (Tick)
system.membus.reqLayer0.utilization               0.0                       # Layer utilization (Ratio)
system.membus.respLayer0.occupancy           13629000                       # Layer occupancy (ticks) (Tick)
system.membus.respLayer0.utilization              0.0                       # Layer utilization (Ratio)
system.membus.snoop_filter.totRequests           2596                       # Total number of requests made to the snoop filter. (Count)
system.membus.snoop_filter.hitSingleRequests            0                       # Number of requests hitting in the snoop filter with a single holder of the requested data. (Count)
system.membus.snoop_filter.hitMultiRequests            0                       # Number of requests hitting in the snoop filter with multiple (>1) holders of the requested data. (Count)
system.membus.snoop_filter.totSnoops                0                       # Total number of snoops made to the snoop filter. (Count)
system.membus.snoop_filter.hitSingleSnoops            0                       # Number of snoops hitting in the snoop filter with a single holder of the requested data. (Count)
system.membus.snoop_filter.hitMultiSnoops            0                       # Number of snoops hitting in the snoop filter with multiple (>1) holders of the requested data. (Count)
system.workload.inst.arm                            0                       # number of arm instructions executed (Count)
system.workload.inst.quiesce                        0                       # number of quiesce instructions executed (Count)

---------- End Simulation Statistics   ----------
