
---------- Begin Simulation Statistics ----------
simSeconds                                   0.054835                       # Number of seconds simulated (Second)
simTicks                                  54834527000                       # Number of ticks simulated (Tick)
finalTick                                 54834527000                       # Number of ticks from beginning of simulation (restored from checkpoints and never reset) (Tick)
simFreq                                  1000000000000                       # The number of ticks per simulated second ((Tick/Second))
hostSeconds                                    241.31                       # Real time elapsed on the host (Second)
hostTickRate                                227241534                       # The number of ticks simulated per host second (ticks/s) ((Tick/Second))
hostMemory                                     673300                       # Number of bytes of host memory used (Byte)
simInsts                                     39805572                       # Number of instructions simulated (Count)
simOps                                       39806677                       # Number of ops (including micro ops) simulated (Count)
hostInstRate                                   164959                       # Simulator instruction rate (inst/s) ((Count/Second))
hostOpRate                                     164964                       # Simulator op (including micro ops) rate (op/s) ((Count/Second))
system.clk_domain.clock                          1000                       # Clock period in ticks (Tick)
system.clk_domain.voltage_domain.voltage            1                       # Voltage in Volts (Volt)
system.cpu.numCycles                         54834528                       # Number of cpu cycles simulated (Cycle)
system.cpu.numWorkItemsStarted                      0                       # Number of work items this cpu started (Count)
system.cpu.numWorkItemsCompleted                    0                       # Number of work items this cpu completed (Count)
system.cpu.instsAdded                       127196693                       # Number of instructions added to the IQ (excludes non-spec) (Count)
system.cpu.nonSpecInstsAdded                       66                       # Number of non-speculative instructions added to the IQ (Count)
system.cpu.instsIssued                       75359838                       # Number of instructions issued (Count)
system.cpu.squashedInstsIssued                    258                       # Number of squashed instructions issued (Count)
system.cpu.squashedInstsExamined             87390081                       # Number of squashed instructions iterated over during squash; mainly for profiling (Count)
system.cpu.squashedOperandsExamined          77264451                       # Number of squashed operands that are examined and possibly removed from graph (Count)
system.cpu.squashedNonSpecRemoved                  27                       # Number of squashed non-spec instructions that were removed (Count)
system.cpu.numIssuedDist::samples            54818116                       # Number of insts issued each cycle (Count)
system.cpu.numIssuedDist::mean               1.374725                       # Number of insts issued each cycle (Count)
system.cpu.numIssuedDist::stdev              1.297377                       # Number of insts issued each cycle (Count)
system.cpu.numIssuedDist::underflows                0      0.00%      0.00% # Number of insts issued each cycle (Count)
system.cpu.numIssuedDist::0                  19095816     34.83%     34.83% # Number of insts issued each cycle (Count)
system.cpu.numIssuedDist::1                  11574750     21.11%     55.95% # Number of insts issued each cycle (Count)
system.cpu.numIssuedDist::2                  13289645     24.24%     80.19% # Number of insts issued each cycle (Count)
system.cpu.numIssuedDist::3                   6715189     12.25%     92.44% # Number of insts issued each cycle (Count)
system.cpu.numIssuedDist::4                   3657218      6.67%     99.11% # Number of insts issued each cycle (Count)
system.cpu.numIssuedDist::5                    482702      0.88%     99.99% # Number of insts issued each cycle (Count)
system.cpu.numIssuedDist::6                      1982      0.00%    100.00% # Number of insts issued each cycle (Count)
system.cpu.numIssuedDist::7                       555      0.00%    100.00% # Number of insts issued each cycle (Count)
system.cpu.numIssuedDist::8                       259      0.00%    100.00% # Number of insts issued each cycle (Count)
system.cpu.numIssuedDist::overflows                 0      0.00%    100.00% # Number of insts issued each cycle (Count)
system.cpu.numIssuedDist::min_value                 0                       # Number of insts issued each cycle (Count)
system.cpu.numIssuedDist::max_value                 8                       # Number of insts issued each cycle (Count)
system.cpu.numIssuedDist::total              54818116                       # Number of insts issued each cycle (Count)
system.cpu.statFuBusy::No_OpClass                   0      0.00%      0.00% # attempts to use FU when none available (Count)
system.cpu.statFuBusy::IntAlu                      43      2.91%      2.91% # attempts to use FU when none available (Count)
system.cpu.statFuBusy::IntMult                      0      0.00%      2.91% # attempts to use FU when none available (Count)
system.cpu.statFuBusy::IntDiv                       0      0.00%      2.91% # attempts to use FU when none available (Count)
system.cpu.statFuBusy::FloatAdd                     0      0.00%      2.91% # attempts to use FU when none available (Count)
system.cpu.statFuBusy::FloatCmp                     0      0.00%      2.91% # attempts to use FU when none available (Count)
system.cpu.statFuBusy::FloatCvt                     0      0.00%      2.91% # attempts to use FU when none available (Count)
system.cpu.statFuBusy::FloatMult                    0      0.00%      2.91% # attempts to use FU when none available (Count)
system.cpu.statFuBusy::FloatMultAcc                 0      0.00%      2.91% # attempts to use FU when none available (Count)
system.cpu.statFuBusy::FloatDiv                     0      0.00%      2.91% # attempts to use FU when none available (Count)
system.cpu.statFuBusy::FloatMisc                    0      0.00%      2.91% # attempts to use FU when none available (Count)
system.cpu.statFuBusy::FloatSqrt                    0      0.00%      2.91% # attempts to use FU when none available (Count)
system.cpu.statFuBusy::SimdAdd                      0      0.00%      2.91% # attempts to use FU when none available (Count)
system.cpu.statFuBusy::SimdAddAcc                   0      0.00%      2.91% # attempts to use FU when none available (Count)
system.cpu.statFuBusy::SimdAlu                      0      0.00%      2.91% # attempts to use FU when none available (Count)
system.cpu.statFuBusy::SimdCmp                      0      0.00%      2.91% # attempts to use FU when none available (Count)
system.cpu.statFuBusy::SimdCvt                      0      0.00%      2.91% # attempts to use FU when none available (Count)
system.cpu.statFuBusy::SimdMisc                     0      0.00%      2.91% # attempts to use FU when none available (Count)
system.cpu.statFuBusy::SimdMult                     0      0.00%      2.91% # attempts to use FU when none available (Count)
system.cpu.statFuBusy::SimdMultAcc                  0      0.00%      2.91% # attempts to use FU when none available (Count)
system.cpu.statFuBusy::SimdShift                    0      0.00%      2.91% # attempts to use FU when none available (Count)
system.cpu.statFuBusy::SimdShiftAcc                 0      0.00%      2.91% # attempts to use FU when none available (Count)
system.cpu.statFuBusy::SimdDiv                      0      0.00%      2.91% # attempts to use FU when none available (Count)
system.cpu.statFuBusy::SimdSqrt                     0      0.00%      2.91% # attempts to use FU when none available (Count)
system.cpu.statFuBusy::SimdFloatAdd                 0      0.00%      2.91% # attempts to use FU when none available (Count)
system.cpu.statFuBusy::SimdFloatAlu                 0      0.00%      2.91% # attempts to use FU when none available (Count)
system.cpu.statFuBusy::SimdFloatCmp                 0      0.00%      2.91% # attempts to use FU when none available (Count)
system.cpu.statFuBusy::SimdFloatCvt                 0      0.00%      2.91% # attempts to use FU when none available (Count)
system.cpu.statFuBusy::SimdFloatDiv                 0      0.00%      2.91% # attempts to use FU when none available (Count)
system.cpu.statFuBusy::SimdFloatMisc                0      0.00%      2.91% # attempts to use FU when none available (Count)
system.cpu.statFuBusy::SimdFloatMult                0      0.00%      2.91% # attempts to use FU when none available (Count)
system.cpu.statFuBusy::SimdFloatMultAcc             0      0.00%      2.91% # attempts to use FU when none available (Count)
system.cpu.statFuBusy::SimdFloatSqrt                0      0.00%      2.91% # attempts to use FU when none available (Count)
system.cpu.statFuBusy::SimdReduceAdd                0      0.00%      2.91% # attempts to use FU when none available (Count)
system.cpu.statFuBusy::SimdReduceAlu                0      0.00%      2.91% # attempts to use FU when none available (Count)
system.cpu.statFuBusy::SimdReduceCmp                0      0.00%      2.91% # attempts to use FU when none available (Count)
system.cpu.statFuBusy::SimdFloatReduceAdd            0      0.00%      2.91% # attempts to use FU when none available (Count)
system.cpu.statFuBusy::SimdFloatReduceCmp            0      0.00%      2.91% # attempts to use FU when none available (Count)
system.cpu.statFuBusy::SimdAes                      0      0.00%      2.91% # attempts to use FU when none available (Count)
system.cpu.statFuBusy::SimdAesMix                   0      0.00%      2.91% # attempts to use FU when none available (Count)
system.cpu.statFuBusy::SimdSha1Hash                 0      0.00%      2.91% # attempts to use FU when none available (Count)
system.cpu.statFuBusy::SimdSha1Hash2                0      0.00%      2.91% # attempts to use FU when none available (Count)
system.cpu.statFuBusy::SimdSha256Hash               0      0.00%      2.91% # attempts to use FU when none available (Count)
system.cpu.statFuBusy::SimdSha256Hash2              0      0.00%      2.91% # attempts to use FU when none available (Count)
system.cpu.statFuBusy::SimdShaSigma2                0      0.00%      2.91% # attempts to use FU when none available (Count)
system.cpu.statFuBusy::SimdShaSigma3                0      0.00%      2.91% # attempts to use FU when none available (Count)
system.cpu.statFuBusy::SimdPredAlu                  0      0.00%      2.91% # attempts to use FU when none available (Count)
system.cpu.statFuBusy::MemRead                   1385     93.64%     96.55% # attempts to use FU when none available (Count)
system.cpu.statFuBusy::MemWrite                    51      3.45%    100.00% # attempts to use FU when none available (Count)
system.cpu.statFuBusy::FloatMemRead                 0      0.00%    100.00% # attempts to use FU when none available (Count)
system.cpu.statFuBusy::FloatMemWrite                0      0.00%    100.00% # attempts to use FU when none available (Count)
system.cpu.statFuBusy::IprAccess                    0      0.00%    100.00% # attempts to use FU when none available (Count)
system.cpu.statFuBusy::InstPrefetch                 0      0.00%    100.00% # attempts to use FU when none available (Count)
system.cpu.statIssuedInstType_0::No_OpClass           15      0.00%      0.00% # Number of instructions issued per FU type, per thread (Count)
system.cpu.statIssuedInstType_0::IntAlu      46028815     61.08%     61.08% # Number of instructions issued per FU type, per thread (Count)
system.cpu.statIssuedInstType_0::IntMult      1863429      2.47%     63.55% # Number of instructions issued per FU type, per thread (Count)
system.cpu.statIssuedInstType_0::IntDiv             3      0.00%     63.55% # Number of instructions issued per FU type, per thread (Count)
system.cpu.statIssuedInstType_0::FloatAdd            0      0.00%     63.55% # Number of instructions issued per FU type, per thread (Count)
system.cpu.statIssuedInstType_0::FloatCmp            0      0.00%     63.55% # Number of instructions issued per FU type, per thread (Count)
system.cpu.statIssuedInstType_0::FloatCvt            0      0.00%     63.55% # Number of instructions issued per FU type, per thread (Count)
system.cpu.statIssuedInstType_0::FloatMult            0      0.00%     63.55% # Number of instructions issued per FU type, per thread (Count)
system.cpu.statIssuedInstType_0::FloatMultAcc            0      0.00%     63.55% # Number of instructions issued per FU type, per thread (Count)
system.cpu.statIssuedInstType_0::FloatDiv            0      0.00%     63.55% # Number of instructions issued per FU type, per thread (Count)
system.cpu.statIssuedInstType_0::FloatMisc            4      0.00%     63.55% # Number of instructions issued per FU type, per thread (Count)
system.cpu.statIssuedInstType_0::FloatSqrt            0      0.00%     63.55% # Number of instructions issued per FU type, per thread (Count)
system.cpu.statIssuedInstType_0::SimdAdd            4      0.00%     63.55% # Number of instructions issued per FU type, per thread (Count)
system.cpu.statIssuedInstType_0::SimdAddAcc            0      0.00%     63.55% # Number of instructions issued per FU type, per thread (Count)
system.cpu.statIssuedInstType_0::SimdAlu            6      0.00%     63.55% # Number of instructions issued per FU type, per thread (Count)
system.cpu.statIssuedInstType_0::SimdCmp            8      0.00%     63.55% # Number of instructions issued per FU type, per thread (Count)
system.cpu.statIssuedInstType_0::SimdCvt            0      0.00%     63.55% # Number of instructions issued per FU type, per thread (Count)
system.cpu.statIssuedInstType_0::SimdMisc            6      0.00%     63.55% # Number of instructions issued per FU type, per thread (Count)
system.cpu.statIssuedInstType_0::SimdMult            0      0.00%     63.55% # Number of instructions issued per FU type, per thread (Count)
system.cpu.statIssuedInstType_0::SimdMultAcc            0      0.00%     63.55% # Number of instructions issued per FU type, per thread (Count)
system.cpu.statIssuedInstType_0::SimdShift            0      0.00%     63.55% # Number of instructions issued per FU type, per thread (Count)
system.cpu.statIssuedInstType_0::SimdShiftAcc            0      0.00%     63.55% # Number of instructions issued per FU type, per thread (Count)
system.cpu.statIssuedInstType_0::SimdDiv            0      0.00%     63.55% # Number of instructions issued per FU type, per thread (Count)
system.cpu.statIssuedInstType_0::SimdSqrt            0      0.00%     63.55% # Number of instructions issued per FU type, per thread (Count)
system.cpu.statIssuedInstType_0::SimdFloatAdd            0      0.00%     63.55% # Number of instructions issued per FU type, per thread (Count)
system.cpu.statIssuedInstType_0::SimdFloatAlu            0      0.00%     63.55% # Number of instructions issued per FU type, per thread (Count)
system.cpu.statIssuedInstType_0::SimdFloatCmp            0      0.00%     63.55% # Number of instructions issued per FU type, per thread (Count)
system.cpu.statIssuedInstType_0::SimdFloatCvt            0      0.00%     63.55% # Number of instructions issued per FU type, per thread (Count)
system.cpu.statIssuedInstType_0::SimdFloatDiv            0      0.00%     63.55% # Number of instructions issued per FU type, per thread (Count)
system.cpu.statIssuedInstType_0::SimdFloatMisc            0      0.00%     63.55% # Number of instructions issued per FU type, per thread (Count)
system.cpu.statIssuedInstType_0::SimdFloatMult            0      0.00%     63.55% # Number of instructions issued per FU type, per thread (Count)
system.cpu.statIssuedInstType_0::SimdFloatMultAcc            0      0.00%     63.55% # Number of instructions issued per FU type, per thread (Count)
system.cpu.statIssuedInstType_0::SimdFloatSqrt            0      0.00%     63.55% # Number of instructions issued per FU type, per thread (Count)
system.cpu.statIssuedInstType_0::SimdReduceAdd            0      0.00%     63.55% # Number of instructions issued per FU type, per thread (Count)
system.cpu.statIssuedInstType_0::SimdReduceAlu            0      0.00%     63.55% # Number of instructions issued per FU type, per thread (Count)
system.cpu.statIssuedInstType_0::SimdReduceCmp            0      0.00%     63.55% # Number of instructions issued per FU type, per thread (Count)
system.cpu.statIssuedInstType_0::SimdFloatReduceAdd            0      0.00%     63.55% # Number of instructions issued per FU type, per thread (Count)
system.cpu.statIssuedInstType_0::SimdFloatReduceCmp            0      0.00%     63.55% # Number of instructions issued per FU type, per thread (Count)
system.cpu.statIssuedInstType_0::SimdAes            0      0.00%     63.55% # Number of instructions issued per FU type, per thread (Count)
system.cpu.statIssuedInstType_0::SimdAesMix            0      0.00%     63.55% # Number of instructions issued per FU type, per thread (Count)
system.cpu.statIssuedInstType_0::SimdSha1Hash            0      0.00%     63.55% # Number of instructions issued per FU type, per thread (Count)
system.cpu.statIssuedInstType_0::SimdSha1Hash2            0      0.00%     63.55% # Number of instructions issued per FU type, per thread (Count)
system.cpu.statIssuedInstType_0::SimdSha256Hash            0      0.00%     63.55% # Number of instructions issued per FU type, per thread (Count)
system.cpu.statIssuedInstType_0::SimdSha256Hash2            0      0.00%     63.55% # Number of instructions issued per FU type, per thread (Count)
system.cpu.statIssuedInstType_0::SimdShaSigma2            0      0.00%     63.55% # Number of instructions issued per FU type, per thread (Count)
system.cpu.statIssuedInstType_0::SimdShaSigma3            0      0.00%     63.55% # Number of instructions issued per FU type, per thread (Count)
system.cpu.statIssuedInstType_0::SimdPredAlu            0      0.00%     63.55% # Number of instructions issued per FU type, per thread (Count)
system.cpu.statIssuedInstType_0::MemRead     18656035     24.76%     88.31% # Number of instructions issued per FU type, per thread (Count)
system.cpu.statIssuedInstType_0::MemWrite      8811513     11.69%    100.00% # Number of instructions issued per FU type, per thread (Count)
system.cpu.statIssuedInstType_0::FloatMemRead            0      0.00%    100.00% # Number of instructions issued per FU type, per thread (Count)
system.cpu.statIssuedInstType_0::FloatMemWrite            0      0.00%    100.00% # Number of instructions issued per FU type, per thread (Count)
system.cpu.statIssuedInstType_0::IprAccess            0      0.00%    100.00% # Number of instructions issued per FU type, per thread (Count)
system.cpu.statIssuedInstType_0::InstPrefetch            0      0.00%    100.00% # Number of instructions issued per FU type, per thread (Count)
system.cpu.statIssuedInstType_0::total       75359838                       # Number of instructions issued per FU type, per thread (Count)
system.cpu.issueRate                         1.374314                       # Inst issue rate ((Count/Cycle))
system.cpu.fuBusy                                1479                       # FU busy when requested (Count)
system.cpu.fuBusyRate                        0.000020                       # FU busy rate (busy events/executed inst) ((Count/Count))
system.cpu.intInstQueueReads                205539172                       # Number of integer instruction queue reads (Count)
system.cpu.intInstQueueWrites               214596340                       # Number of integer instruction queue writes (Count)
system.cpu.intInstQueueWakeupAccesses        74331355                       # Number of integer instruction queue wakeup accesses (Count)
system.cpu.fpInstQueueReads                         0                       # Number of floating instruction queue reads (Count)
system.cpu.fpInstQueueWrites                        0                       # Number of floating instruction queue writes (Count)
system.cpu.fpInstQueueWakeupAccesses                0                       # Number of floating instruction queue wakeup accesses (Count)
system.cpu.vecInstQueueReads                      357                       # Number of vector instruction queue reads (Count)
system.cpu.vecInstQueueWrites                     280                       # Number of vector instruction queue writes (Count)
system.cpu.vecInstQueueWakeupAccesses             131                       # Number of vector instruction queue wakeup accesses (Count)
system.cpu.intAluAccesses                    75361125                       # Number of integer alu accesses (Count)
system.cpu.fpAluAccesses                            0                       # Number of floating point alu accesses (Count)
system.cpu.vecAluAccesses                         177                       # Number of vector alu accesses (Count)
system.cpu.numInsts                          74344421                       # Number of executed instructions (Count)
system.cpu.numLoadInsts                      18650227                       # Number of load instructions executed (Count)
system.cpu.numSquashedInsts                   1015417                       # Number of squashed instructions skipped in execute (Count)
system.cpu.numSwp                                   0                       # Number of swp insts executed (Count)
system.cpu.numNop                             1991509                       # Number of nop insts executed (Count)
system.cpu.numRefs                           26524374                       # Number of memory reference insts executed (Count)
system.cpu.numBranches                        2569606                       # Number of branches executed (Count)
system.cpu.numStoreInsts                      7874147                       # Number of stores executed (Count)
system.cpu.numRate                           1.355796                       # Inst execution rate ((Count/Cycle))
system.cpu.timesIdled                             258                       # Number of times that the entire CPU went into an idle state and unscheduled itself (Count)
system.cpu.idleCycles                           16412                       # Total number of cycles that the CPU has spent unscheduled due to idling (Cycle)
system.cpu.committedInsts                    39805572                       # Number of Instructions Simulated (Count)
system.cpu.committedOps                      39806677                       # Number of Ops (including micro ops) Simulated (Count)
system.cpu.cpi                               1.377559                       # CPI: Cycles Per Instruction ((Cycle/Count))
system.cpu.totalCpi                          1.377559                       # CPI: Total CPI of All Threads ((Cycle/Count))
system.cpu.ipc                               0.725922                       # IPC: Instructions Per Cycle ((Count/Cycle))
system.cpu.totalIpc                          0.725922                       # IPC: Total IPC of All Threads ((Count/Cycle))
system.cpu.intRegfileReads                   85839222                       # Number of integer regfile reads (Count)
system.cpu.intRegfileWrites                  64700884                       # Number of integer regfile writes (Count)
system.cpu.vecRegfileReads                        175                       # number of vector regfile reads (Count)
system.cpu.ccRegfileReads                      592452                       # number of cc regfile reads (Count)
system.cpu.ccRegfileWrites                     592587                       # number of cc regfile writes (Count)
system.cpu.miscRegfileReads                   2569358                       # number of misc regfile reads (Count)
system.cpu.miscRegfileWrites                       33                       # number of misc regfile writes (Count)
system.cpu.MemDepUnit__0.insertedLoads       32415897                       # Number of loads inserted to the mem dependence unit. (Count)
system.cpu.MemDepUnit__0.insertedStores      13829455                       # Number of stores inserted to the mem dependence unit. (Count)
system.cpu.MemDepUnit__0.conflictingLoads     25636696                       # Number of conflicting loads. (Count)
system.cpu.MemDepUnit__0.conflictingStores      6861448                       # Number of conflicting stores. (Count)
system.cpu.MemDepUnit__1.insertedLoads              0                       # Number of loads inserted to the mem dependence unit. (Count)
system.cpu.MemDepUnit__1.insertedStores             0                       # Number of stores inserted to the mem dependence unit. (Count)
system.cpu.MemDepUnit__1.conflictingLoads            0                       # Number of conflicting loads. (Count)
system.cpu.MemDepUnit__1.conflictingStores            0                       # Number of conflicting stores. (Count)
system.cpu.MemDepUnit__2.insertedLoads              0                       # Number of loads inserted to the mem dependence unit. (Count)
system.cpu.MemDepUnit__2.insertedStores             0                       # Number of stores inserted to the mem dependence unit. (Count)
system.cpu.MemDepUnit__2.conflictingLoads            0                       # Number of conflicting loads. (Count)
system.cpu.MemDepUnit__2.conflictingStores            0                       # Number of conflicting stores. (Count)
system.cpu.MemDepUnit__3.insertedLoads              0                       # Number of loads inserted to the mem dependence unit. (Count)
system.cpu.MemDepUnit__3.insertedStores             0                       # Number of stores inserted to the mem dependence unit. (Count)
system.cpu.MemDepUnit__3.conflictingLoads            0                       # Number of conflicting loads. (Count)
system.cpu.MemDepUnit__3.conflictingStores            0                       # Number of conflicting stores. (Count)
system.cpu.branchPred.lookups                 7172207                       # Number of BP lookups (Count)
system.cpu.branchPred.condPredicted            493202                       # Number of conditional branches predicted (Count)
system.cpu.branchPred.condIncorrect            959513                       # Number of conditional branches incorrect (Count)
system.cpu.branchPred.BTBLookups               492427                       # Number of BTB lookups (Count)
system.cpu.branchPred.BTBUpdates                  471                       # Number of BTB updates (Count)
system.cpu.branchPred.BTBHits                  491578                       # Number of BTB hits (Count)
system.cpu.branchPred.BTBHitRatio            0.998276                       # BTB Hit Ratio (Ratio)
system.cpu.branchPred.RASUsed                 2264066                       # Number of times the RAS was used to get a target. (Count)
system.cpu.branchPred.RASIncorrect                  0                       # Number of incorrect RAS predictions. (Count)
system.cpu.branchPred.indirectLookups         4414275                       # Number of indirect predictor lookups. (Count)
system.cpu.branchPred.indirectHits            1415229                       # Number of indirect target hits. (Count)
system.cpu.branchPred.indirectMisses          2999046                       # Number of indirect misses. (Count)
system.cpu.branchPred.indirectMispredicted       959005                       # Number of mispredicted indirect branches. (Count)
system.cpu.commit.commitSquashedInsts        88381555                       # The number of squashed insts skipped by commit (Count)
system.cpu.commit.commitNonSpecStalls              39                       # The number of times commit has been forced to stall to communicate backwards (Count)
system.cpu.commit.branchMispredicts            959324                       # The number of times a branch was mispredicted (Count)
system.cpu.commit.numCommittedDist::samples     43312211                       # Number of insts commited each cycle (Count)
system.cpu.commit.numCommittedDist::mean     0.942153                       # Number of insts commited each cycle (Count)
system.cpu.commit.numCommittedDist::stdev     1.170318                       # Number of insts commited each cycle (Count)
system.cpu.commit.numCommittedDist::underflows            0      0.00%      0.00% # Number of insts commited each cycle (Count)
system.cpu.commit.numCommittedDist::0        16490689     38.07%     38.07% # Number of insts commited each cycle (Count)
system.cpu.commit.numCommittedDist::1        19688240     45.46%     83.53% # Number of insts commited each cycle (Count)
system.cpu.commit.numCommittedDist::2         3889668      8.98%     92.51% # Number of insts commited each cycle (Count)
system.cpu.commit.numCommittedDist::3         2017441      4.66%     97.17% # Number of insts commited each cycle (Count)
system.cpu.commit.numCommittedDist::4          114216      0.26%     97.43% # Number of insts commited each cycle (Count)
system.cpu.commit.numCommittedDist::5           97702      0.23%     97.66% # Number of insts commited each cycle (Count)
system.cpu.commit.numCommittedDist::6          885684      2.04%     99.70% # Number of insts commited each cycle (Count)
system.cpu.commit.numCommittedDist::7            1237      0.00%     99.71% # Number of insts commited each cycle (Count)
system.cpu.commit.numCommittedDist::8          127334      0.29%    100.00% # Number of insts commited each cycle (Count)
system.cpu.commit.numCommittedDist::overflows            0      0.00%    100.00% # Number of insts commited each cycle (Count)
system.cpu.commit.numCommittedDist::min_value            0                       # Number of insts commited each cycle (Count)
system.cpu.commit.numCommittedDist::max_value            8                       # Number of insts commited each cycle (Count)
system.cpu.commit.numCommittedDist::total     43312211                       # Number of insts commited each cycle (Count)
system.cpu.commit.instsCommitted             40805603                       # Number of instructions committed (Count)
system.cpu.commit.opsCommitted               40806708                       # Number of ops (including micro ops) committed (Count)
system.cpu.commit.memRefs                    13301996                       # Number of memory references committed (Count)
system.cpu.commit.loads                       9200869                       # Number of loads committed (Count)
system.cpu.commit.amos                              8                       # Number of atomic instructions committed (Count)
system.cpu.commit.membars                          14                       # Number of memory barriers committed (Count)
system.cpu.commit.branches                    2101240                       # Number of branches committed (Count)
system.cpu.commit.vectorInstructions              102                       # Number of committed Vector instructions. (Count)
system.cpu.commit.floating                          0                       # Number of committed floating point instructions. (Count)
system.cpu.commit.integer                    39705984                       # Number of committed integer instructions. (Count)
system.cpu.commit.functionCalls               1000131                       # Number of function calls committed. (Count)
system.cpu.commit.committedInstType_0::No_OpClass           15      0.00%      0.00% # Class of committed instruction (Count)
system.cpu.commit.committedInstType_0::IntAlu     26504660     64.95%     64.95% # Class of committed instruction (Count)
system.cpu.commit.committedInstType_0::IntMult      1000007      2.45%     67.40% # Class of committed instruction (Count)
system.cpu.commit.committedInstType_0::IntDiv            3      0.00%     67.40% # Class of committed instruction (Count)
system.cpu.commit.committedInstType_0::FloatAdd            0      0.00%     67.40% # Class of committed instruction (Count)
system.cpu.commit.committedInstType_0::FloatCmp            0      0.00%     67.40% # Class of committed instruction (Count)
system.cpu.commit.committedInstType_0::FloatCvt            0      0.00%     67.40% # Class of committed instruction (Count)
system.cpu.commit.committedInstType_0::FloatMult            0      0.00%     67.40% # Class of committed instruction (Count)
system.cpu.commit.committedInstType_0::FloatMultAcc            0      0.00%     67.40% # Class of committed instruction (Count)
system.cpu.commit.committedInstType_0::FloatDiv            0      0.00%     67.40% # Class of committed instruction (Count)
system.cpu.commit.committedInstType_0::FloatMisc            4      0.00%     67.40% # Class of committed instruction (Count)
system.cpu.commit.committedInstType_0::FloatSqrt            0      0.00%     67.40% # Class of committed instruction (Count)
system.cpu.commit.committedInstType_0::SimdAdd            4      0.00%     67.40% # Class of committed instruction (Count)
system.cpu.commit.committedInstType_0::SimdAddAcc            0      0.00%     67.40% # Class of committed instruction (Count)
system.cpu.commit.committedInstType_0::SimdAlu            6      0.00%     67.40% # Class of committed instruction (Count)
system.cpu.commit.committedInstType_0::SimdCmp            8      0.00%     67.40% # Class of committed instruction (Count)
system.cpu.commit.committedInstType_0::SimdCvt            0      0.00%     67.40% # Class of committed instruction (Count)
system.cpu.commit.committedInstType_0::SimdMisc            5      0.00%     67.40% # Class of committed instruction (Count)
system.cpu.commit.committedInstType_0::SimdMult            0      0.00%     67.40% # Class of committed instruction (Count)
system.cpu.commit.committedInstType_0::SimdMultAcc            0      0.00%     67.40% # Class of committed instruction (Count)
system.cpu.commit.committedInstType_0::SimdShift            0      0.00%     67.40% # Class of committed instruction (Count)
system.cpu.commit.committedInstType_0::SimdShiftAcc            0      0.00%     67.40% # Class of committed instruction (Count)
system.cpu.commit.committedInstType_0::SimdDiv            0      0.00%     67.40% # Class of committed instruction (Count)
system.cpu.commit.committedInstType_0::SimdSqrt            0      0.00%     67.40% # Class of committed instruction (Count)
system.cpu.commit.committedInstType_0::SimdFloatAdd            0      0.00%     67.40% # Class of committed instruction (Count)
system.cpu.commit.committedInstType_0::SimdFloatAlu            0      0.00%     67.40% # Class of committed instruction (Count)
system.cpu.commit.committedInstType_0::SimdFloatCmp            0      0.00%     67.40% # Class of committed instruction (Count)
system.cpu.commit.committedInstType_0::SimdFloatCvt            0      0.00%     67.40% # Class of committed instruction (Count)
system.cpu.commit.committedInstType_0::SimdFloatDiv            0      0.00%     67.40% # Class of committed instruction (Count)
system.cpu.commit.committedInstType_0::SimdFloatMisc            0      0.00%     67.40% # Class of committed instruction (Count)
system.cpu.commit.committedInstType_0::SimdFloatMult            0      0.00%     67.40% # Class of committed instruction (Count)
system.cpu.commit.committedInstType_0::SimdFloatMultAcc            0      0.00%     67.40% # Class of committed instruction (Count)
system.cpu.commit.committedInstType_0::SimdFloatSqrt            0      0.00%     67.40% # Class of committed instruction (Count)
system.cpu.commit.committedInstType_0::SimdReduceAdd            0      0.00%     67.40% # Class of committed instruction (Count)
system.cpu.commit.committedInstType_0::SimdReduceAlu            0      0.00%     67.40% # Class of committed instruction (Count)
system.cpu.commit.committedInstType_0::SimdReduceCmp            0      0.00%     67.40% # Class of committed instruction (Count)
system.cpu.commit.committedInstType_0::SimdFloatReduceAdd            0      0.00%     67.40% # Class of committed instruction (Count)
system.cpu.commit.committedInstType_0::SimdFloatReduceCmp            0      0.00%     67.40% # Class of committed instruction (Count)
system.cpu.commit.committedInstType_0::SimdAes            0      0.00%     67.40% # Class of committed instruction (Count)
system.cpu.commit.committedInstType_0::SimdAesMix            0      0.00%     67.40% # Class of committed instruction (Count)
system.cpu.commit.committedInstType_0::SimdSha1Hash            0      0.00%     67.40% # Class of committed instruction (Count)
system.cpu.commit.committedInstType_0::SimdSha1Hash2            0      0.00%     67.40% # Class of committed instruction (Count)
system.cpu.commit.committedInstType_0::SimdSha256Hash            0      0.00%     67.40% # Class of committed instruction (Count)
system.cpu.commit.committedInstType_0::SimdSha256Hash2            0      0.00%     67.40% # Class of committed instruction (Count)
system.cpu.commit.committedInstType_0::SimdShaSigma2            0      0.00%     67.40% # Class of committed instruction (Count)
system.cpu.commit.committedInstType_0::SimdShaSigma3            0      0.00%     67.40% # Class of committed instruction (Count)
system.cpu.commit.committedInstType_0::SimdPredAlu            0      0.00%     67.40% # Class of committed instruction (Count)
system.cpu.commit.committedInstType_0::MemRead      9200869     22.55%     89.95% # Class of committed instruction (Count)
system.cpu.commit.committedInstType_0::MemWrite      4101127     10.05%    100.00% # Class of committed instruction (Count)
system.cpu.commit.committedInstType_0::FloatMemRead            0      0.00%    100.00% # Class of committed instruction (Count)
system.cpu.commit.committedInstType_0::FloatMemWrite            0      0.00%    100.00% # Class of committed instruction (Count)
system.cpu.commit.committedInstType_0::IprAccess            0      0.00%    100.00% # Class of committed instruction (Count)
system.cpu.commit.committedInstType_0::InstPrefetch            0      0.00%    100.00% # Class of committed instruction (Count)
system.cpu.commit.committedInstType_0::total     40806708                       # Class of committed instruction (Count)
system.cpu.commit.commitEligibleSamples        127334                       # number cycles where commit BW limit reached (Cycle)
system.cpu.dcache.demandHits::cpu.data        9421838                       # number of demand (read+write) hits (Count)
system.cpu.dcache.demandHits::total           9421838                       # number of demand (read+write) hits (Count)
system.cpu.dcache.overallHits::cpu.data       9421838                       # number of overall hits (Count)
system.cpu.dcache.overallHits::total          9421838                       # number of overall hits (Count)
system.cpu.dcache.demandMisses::cpu.data          675                       # number of demand (read+write) misses (Count)
system.cpu.dcache.demandMisses::total             675                       # number of demand (read+write) misses (Count)
system.cpu.dcache.overallMisses::cpu.data          675                       # number of overall misses (Count)
system.cpu.dcache.overallMisses::total            675                       # number of overall misses (Count)
system.cpu.dcache.demandMissLatency::cpu.data     60037968                       # number of demand (read+write) miss ticks (Tick)
system.cpu.dcache.demandMissLatency::total     60037968                       # number of demand (read+write) miss ticks (Tick)
system.cpu.dcache.overallMissLatency::cpu.data     60037968                       # number of overall miss ticks (Tick)
system.cpu.dcache.overallMissLatency::total     60037968                       # number of overall miss ticks (Tick)
system.cpu.dcache.demandAccesses::cpu.data      9422513                       # number of demand (read+write) accesses (Count)
system.cpu.dcache.demandAccesses::total       9422513                       # number of demand (read+write) accesses (Count)
system.cpu.dcache.overallAccesses::cpu.data      9422513                       # number of overall (read+write) accesses (Count)
system.cpu.dcache.overallAccesses::total      9422513                       # number of overall (read+write) accesses (Count)
system.cpu.dcache.demandMissRate::cpu.data     0.000072                       # miss rate for demand accesses (Ratio)
system.cpu.dcache.demandMissRate::total      0.000072                       # miss rate for demand accesses (Ratio)
system.cpu.dcache.overallMissRate::cpu.data     0.000072                       # miss rate for overall accesses (Ratio)
system.cpu.dcache.overallMissRate::total     0.000072                       # miss rate for overall accesses (Ratio)
system.cpu.dcache.demandAvgMissLatency::cpu.data 88945.137778                       # average overall miss latency in ticks ((Tick/Count))
system.cpu.dcache.demandAvgMissLatency::total 88945.137778                       # average overall miss latency in ticks ((Tick/Count))
system.cpu.dcache.overallAvgMissLatency::cpu.data 88945.137778                       # average overall miss latency ((Tick/Count))
system.cpu.dcache.overallAvgMissLatency::total 88945.137778                       # average overall miss latency ((Tick/Count))
system.cpu.dcache.blockedCycles::no_mshrs         1789                       # number of cycles access was blocked (Cycle)
system.cpu.dcache.blockedCycles::no_targets            0                       # number of cycles access was blocked (Cycle)
system.cpu.dcache.blockedCauses::no_mshrs           69                       # number of times access was blocked (Count)
system.cpu.dcache.blockedCauses::no_targets            0                       # number of times access was blocked (Count)
system.cpu.dcache.avgBlocked::no_mshrs      25.927536                       # average number of cycles each access was blocked ((Cycle/Count))
system.cpu.dcache.avgBlocked::no_targets          nan                       # average number of cycles each access was blocked ((Cycle/Count))
system.cpu.dcache.demandMshrHits::cpu.data          453                       # number of demand (read+write) MSHR hits (Count)
system.cpu.dcache.demandMshrHits::total           453                       # number of demand (read+write) MSHR hits (Count)
system.cpu.dcache.overallMshrHits::cpu.data          453                       # number of overall MSHR hits (Count)
system.cpu.dcache.overallMshrHits::total          453                       # number of overall MSHR hits (Count)
system.cpu.dcache.demandMshrMisses::cpu.data          222                       # number of demand (read+write) MSHR misses (Count)
system.cpu.dcache.demandMshrMisses::total          222                       # number of demand (read+write) MSHR misses (Count)
system.cpu.dcache.overallMshrMisses::cpu.data          222                       # number of overall MSHR misses (Count)
system.cpu.dcache.overallMshrMisses::total          222                       # number of overall MSHR misses (Count)
system.cpu.dcache.demandMshrMissLatency::cpu.data     22399994                       # number of demand (read+write) MSHR miss ticks (Tick)
system.cpu.dcache.demandMshrMissLatency::total     22399994                       # number of demand (read+write) MSHR miss ticks (Tick)
system.cpu.dcache.overallMshrMissLatency::cpu.data     22399994                       # number of overall MSHR miss ticks (Tick)
system.cpu.dcache.overallMshrMissLatency::total     22399994                       # number of overall MSHR miss ticks (Tick)
system.cpu.dcache.demandMshrMissRate::cpu.data     0.000024                       # mshr miss ratio for demand accesses (Ratio)
system.cpu.dcache.demandMshrMissRate::total     0.000024                       # mshr miss ratio for demand accesses (Ratio)
system.cpu.dcache.overallMshrMissRate::cpu.data     0.000024                       # mshr miss ratio for overall accesses (Ratio)
system.cpu.dcache.overallMshrMissRate::total     0.000024                       # mshr miss ratio for overall accesses (Ratio)
system.cpu.dcache.demandAvgMshrMissLatency::cpu.data 100900.873874                       # average overall mshr miss latency ((Tick/Count))
system.cpu.dcache.demandAvgMshrMissLatency::total 100900.873874                       # average overall mshr miss latency ((Tick/Count))
system.cpu.dcache.overallAvgMshrMissLatency::cpu.data 100900.873874                       # average overall mshr miss latency ((Tick/Count))
system.cpu.dcache.overallAvgMshrMissLatency::total 100900.873874                       # average overall mshr miss latency ((Tick/Count))
system.cpu.dcache.replacements                      0                       # number of replacements (Count)
system.cpu.dcache.LoadLockedReq.hits::cpu.data            5                       # number of LoadLockedReq hits (Count)
system.cpu.dcache.LoadLockedReq.hits::total            5                       # number of LoadLockedReq hits (Count)
system.cpu.dcache.LoadLockedReq.misses::cpu.data            1                       # number of LoadLockedReq misses (Count)
system.cpu.dcache.LoadLockedReq.misses::total            1                       # number of LoadLockedReq misses (Count)
system.cpu.dcache.LoadLockedReq.missLatency::cpu.data       109000                       # number of LoadLockedReq miss ticks (Tick)
system.cpu.dcache.LoadLockedReq.missLatency::total       109000                       # number of LoadLockedReq miss ticks (Tick)
system.cpu.dcache.LoadLockedReq.accesses::cpu.data            6                       # number of LoadLockedReq accesses(hits+misses) (Count)
system.cpu.dcache.LoadLockedReq.accesses::total            6                       # number of LoadLockedReq accesses(hits+misses) (Count)
system.cpu.dcache.LoadLockedReq.missRate::cpu.data     0.166667                       # miss rate for LoadLockedReq accesses (Ratio)
system.cpu.dcache.LoadLockedReq.missRate::total     0.166667                       # miss rate for LoadLockedReq accesses (Ratio)
system.cpu.dcache.LoadLockedReq.avgMissLatency::cpu.data       109000                       # average LoadLockedReq miss latency ((Tick/Count))
system.cpu.dcache.LoadLockedReq.avgMissLatency::total       109000                       # average LoadLockedReq miss latency ((Tick/Count))
system.cpu.dcache.LoadLockedReq.mshrMisses::cpu.data            1                       # number of LoadLockedReq MSHR misses (Count)
system.cpu.dcache.LoadLockedReq.mshrMisses::total            1                       # number of LoadLockedReq MSHR misses (Count)
system.cpu.dcache.LoadLockedReq.mshrMissLatency::cpu.data       107000                       # number of LoadLockedReq MSHR miss ticks (Tick)
system.cpu.dcache.LoadLockedReq.mshrMissLatency::total       107000                       # number of LoadLockedReq MSHR miss ticks (Tick)
system.cpu.dcache.LoadLockedReq.mshrMissRate::cpu.data     0.166667                       # mshr miss rate for LoadLockedReq accesses (Ratio)
system.cpu.dcache.LoadLockedReq.mshrMissRate::total     0.166667                       # mshr miss rate for LoadLockedReq accesses (Ratio)
system.cpu.dcache.LoadLockedReq.avgMshrMissLatency::cpu.data       107000                       # average LoadLockedReq mshr miss latency ((Tick/Count))
system.cpu.dcache.LoadLockedReq.avgMshrMissLatency::total       107000                       # average LoadLockedReq mshr miss latency ((Tick/Count))
system.cpu.dcache.ReadReq.hits::cpu.data      5321182                       # number of ReadReq hits (Count)
system.cpu.dcache.ReadReq.hits::total         5321182                       # number of ReadReq hits (Count)
system.cpu.dcache.ReadReq.misses::cpu.data          215                       # number of ReadReq misses (Count)
system.cpu.dcache.ReadReq.misses::total           215                       # number of ReadReq misses (Count)
system.cpu.dcache.ReadReq.missLatency::cpu.data     19533000                       # number of ReadReq miss ticks (Tick)
system.cpu.dcache.ReadReq.missLatency::total     19533000                       # number of ReadReq miss ticks (Tick)
system.cpu.dcache.ReadReq.accesses::cpu.data      5321397                       # number of ReadReq accesses(hits+misses) (Count)
system.cpu.dcache.ReadReq.accesses::total      5321397                       # number of ReadReq accesses(hits+misses) (Count)
system.cpu.dcache.ReadReq.missRate::cpu.data     0.000040                       # miss rate for ReadReq accesses (Ratio)
system.cpu.dcache.ReadReq.missRate::total     0.000040                       # miss rate for ReadReq accesses (Ratio)
system.cpu.dcache.ReadReq.avgMissLatency::cpu.data 90851.162791                       # average ReadReq miss latency ((Tick/Count))
system.cpu.dcache.ReadReq.avgMissLatency::total 90851.162791                       # average ReadReq miss latency ((Tick/Count))
system.cpu.dcache.ReadReq.mshrHits::cpu.data          108                       # number of ReadReq MSHR hits (Count)
system.cpu.dcache.ReadReq.mshrHits::total          108                       # number of ReadReq MSHR hits (Count)
system.cpu.dcache.ReadReq.mshrMisses::cpu.data          107                       # number of ReadReq MSHR misses (Count)
system.cpu.dcache.ReadReq.mshrMisses::total          107                       # number of ReadReq MSHR misses (Count)
system.cpu.dcache.ReadReq.mshrMissLatency::cpu.data     11100000                       # number of ReadReq MSHR miss ticks (Tick)
system.cpu.dcache.ReadReq.mshrMissLatency::total     11100000                       # number of ReadReq MSHR miss ticks (Tick)
system.cpu.dcache.ReadReq.mshrMissRate::cpu.data     0.000020                       # mshr miss rate for ReadReq accesses (Ratio)
system.cpu.dcache.ReadReq.mshrMissRate::total     0.000020                       # mshr miss rate for ReadReq accesses (Ratio)
system.cpu.dcache.ReadReq.avgMshrMissLatency::cpu.data 103738.317757                       # average ReadReq mshr miss latency ((Tick/Count))
system.cpu.dcache.ReadReq.avgMshrMissLatency::total 103738.317757                       # average ReadReq mshr miss latency ((Tick/Count))
system.cpu.dcache.StoreCondReq.hits::cpu.data            4                       # number of StoreCondReq hits (Count)
system.cpu.dcache.StoreCondReq.hits::total            4                       # number of StoreCondReq hits (Count)
system.cpu.dcache.StoreCondReq.accesses::cpu.data            4                       # number of StoreCondReq accesses(hits+misses) (Count)
system.cpu.dcache.StoreCondReq.accesses::total            4                       # number of StoreCondReq accesses(hits+misses) (Count)
system.cpu.dcache.SwapReq.hits::cpu.data            8                       # number of SwapReq hits (Count)
system.cpu.dcache.SwapReq.hits::total               8                       # number of SwapReq hits (Count)
system.cpu.dcache.SwapReq.accesses::cpu.data            8                       # number of SwapReq accesses(hits+misses) (Count)
system.cpu.dcache.SwapReq.accesses::total            8                       # number of SwapReq accesses(hits+misses) (Count)
system.cpu.dcache.WriteLineReq.misses::cpu.data            7                       # number of WriteLineReq misses (Count)
system.cpu.dcache.WriteLineReq.misses::total            7                       # number of WriteLineReq misses (Count)
system.cpu.dcache.WriteLineReq.missLatency::cpu.data       380997                       # number of WriteLineReq miss ticks (Tick)
system.cpu.dcache.WriteLineReq.missLatency::total       380997                       # number of WriteLineReq miss ticks (Tick)
system.cpu.dcache.WriteLineReq.accesses::cpu.data            7                       # number of WriteLineReq accesses(hits+misses) (Count)
system.cpu.dcache.WriteLineReq.accesses::total            7                       # number of WriteLineReq accesses(hits+misses) (Count)
system.cpu.dcache.WriteLineReq.missRate::cpu.data            1                       # miss rate for WriteLineReq accesses (Ratio)
system.cpu.dcache.WriteLineReq.missRate::total            1                       # miss rate for WriteLineReq accesses (Ratio)
system.cpu.dcache.WriteLineReq.avgMissLatency::cpu.data 54428.142857                       # average WriteLineReq miss latency ((Tick/Count))
system.cpu.dcache.WriteLineReq.avgMissLatency::total 54428.142857                       # average WriteLineReq miss latency ((Tick/Count))
system.cpu.dcache.WriteLineReq.mshrMisses::cpu.data            7                       # number of WriteLineReq MSHR misses (Count)
system.cpu.dcache.WriteLineReq.mshrMisses::total            7                       # number of WriteLineReq MSHR misses (Count)
system.cpu.dcache.WriteLineReq.mshrMissLatency::cpu.data       366997                       # number of WriteLineReq MSHR miss ticks (Tick)
system.cpu.dcache.WriteLineReq.mshrMissLatency::total       366997                       # number of WriteLineReq MSHR miss ticks (Tick)
system.cpu.dcache.WriteLineReq.mshrMissRate::cpu.data            1                       # mshr miss rate for WriteLineReq accesses (Ratio)
system.cpu.dcache.WriteLineReq.mshrMissRate::total            1                       # mshr miss rate for WriteLineReq accesses (Ratio)
system.cpu.dcache.WriteLineReq.avgMshrMissLatency::cpu.data 52428.142857                       # average WriteLineReq mshr miss latency ((Tick/Count))
system.cpu.dcache.WriteLineReq.avgMshrMissLatency::total 52428.142857                       # average WriteLineReq mshr miss latency ((Tick/Count))
system.cpu.dcache.WriteReq.hits::cpu.data      4100656                       # number of WriteReq hits (Count)
system.cpu.dcache.WriteReq.hits::total        4100656                       # number of WriteReq hits (Count)
system.cpu.dcache.WriteReq.misses::cpu.data          453                       # number of WriteReq misses (Count)
system.cpu.dcache.WriteReq.misses::total          453                       # number of WriteReq misses (Count)
system.cpu.dcache.WriteReq.missLatency::cpu.data     40123971                       # number of WriteReq miss ticks (Tick)
system.cpu.dcache.WriteReq.missLatency::total     40123971                       # number of WriteReq miss ticks (Tick)
system.cpu.dcache.WriteReq.accesses::cpu.data      4101109                       # number of WriteReq accesses(hits+misses) (Count)
system.cpu.dcache.WriteReq.accesses::total      4101109                       # number of WriteReq accesses(hits+misses) (Count)
system.cpu.dcache.WriteReq.missRate::cpu.data     0.000110                       # miss rate for WriteReq accesses (Ratio)
system.cpu.dcache.WriteReq.missRate::total     0.000110                       # miss rate for WriteReq accesses (Ratio)
system.cpu.dcache.WriteReq.avgMissLatency::cpu.data 88573.887417                       # average WriteReq miss latency ((Tick/Count))
system.cpu.dcache.WriteReq.avgMissLatency::total 88573.887417                       # average WriteReq miss latency ((Tick/Count))
system.cpu.dcache.WriteReq.mshrHits::cpu.data          345                       # number of WriteReq MSHR hits (Count)
system.cpu.dcache.WriteReq.mshrHits::total          345                       # number of WriteReq MSHR hits (Count)
system.cpu.dcache.WriteReq.mshrMisses::cpu.data          108                       # number of WriteReq MSHR misses (Count)
system.cpu.dcache.WriteReq.mshrMisses::total          108                       # number of WriteReq MSHR misses (Count)
system.cpu.dcache.WriteReq.mshrMissLatency::cpu.data     10932997                       # number of WriteReq MSHR miss ticks (Tick)
system.cpu.dcache.WriteReq.mshrMissLatency::total     10932997                       # number of WriteReq MSHR miss ticks (Tick)
system.cpu.dcache.WriteReq.mshrMissRate::cpu.data     0.000026                       # mshr miss rate for WriteReq accesses (Ratio)
system.cpu.dcache.WriteReq.mshrMissRate::total     0.000026                       # mshr miss rate for WriteReq accesses (Ratio)
system.cpu.dcache.WriteReq.avgMshrMissLatency::cpu.data 101231.453704                       # average WriteReq mshr miss latency ((Tick/Count))
system.cpu.dcache.WriteReq.avgMshrMissLatency::total 101231.453704                       # average WriteReq mshr miss latency ((Tick/Count))
system.cpu.dcache.power_state.pwrStateResidencyTicks::UNDEFINED  54834527000                       # Cumulative time (in ticks) in various power states (Tick)
system.cpu.dcache.tags.tagsInUse           200.960210                       # Average ticks per tags in use ((Tick/Count))
system.cpu.dcache.tags.totalRefs              9422078                       # Total number of references to valid blocks. (Count)
system.cpu.dcache.tags.sampledRefs                223                       # Sample count of references to valid blocks. (Count)
system.cpu.dcache.tags.avgRefs           42251.470852                       # Average number of references to valid blocks. ((Count/Count))
system.cpu.dcache.tags.warmupTick              222000                       # The tick when the warmup percentage was hit. (Tick)
system.cpu.dcache.tags.occupancies::cpu.data   200.960210                       # Average occupied blocks per tick, per requestor ((Count/Tick))
system.cpu.dcache.tags.avgOccs::cpu.data     0.196250                       # Average percentage of cache occupancy ((Ratio/Tick))
system.cpu.dcache.tags.avgOccs::total        0.196250                       # Average percentage of cache occupancy ((Ratio/Tick))
system.cpu.dcache.tags.occupanciesTaskId::1024          223                       # Occupied blocks per task id (Count)
system.cpu.dcache.tags.ageTaskId_1024::0           22                       # Occupied blocks per task id, per block age (Count)
system.cpu.dcache.tags.ageTaskId_1024::4          201                       # Occupied blocks per task id, per block age (Count)
system.cpu.dcache.tags.ratioOccsTaskId::1024     0.217773                       # Ratio of occupied blocks and all blocks, per task id (Ratio)
system.cpu.dcache.tags.tagAccesses           18845285                       # Number of tag accesses (Count)
system.cpu.dcache.tags.dataAccesses          18845285                       # Number of data accesses (Count)
system.cpu.dcache.tags.power_state.pwrStateResidencyTicks::UNDEFINED  54834527000                       # Cumulative time (in ticks) in various power states (Tick)
system.cpu.decode.idleCycles                  7053048                       # Number of cycles decode is idle (Cycle)
system.cpu.decode.blockedCycles              27781566                       # Number of cycles decode is blocked (Cycle)
system.cpu.decode.runCycles                  12797935                       # Number of cycles decode is running (Cycle)
system.cpu.decode.unblockCycles               6217277                       # Number of cycles decode is unblocking (Cycle)
system.cpu.decode.squashCycles                 968290                       # Number of cycles decode is squashing (Cycle)
system.cpu.decode.branchResolved               390599                       # Number of times decode resolved a branch (Count)
system.cpu.decode.branchMispred                   190                       # Number of times decode detected a branch misprediction (Count)
system.cpu.decode.decodedInsts              140419966                       # Number of instructions handled by decode (Count)
system.cpu.decode.squashedInsts                   811                       # Number of squashed instructions handled by decode (Count)
system.cpu.fetch.icacheStallCycles           16317068                       # Number of cycles fetch is stalled on an Icache miss (Cycle)
system.cpu.fetch.insts                      172746226                       # Number of instructions fetch has processed (Count)
system.cpu.fetch.branches                     7172207                       # Number of branches that fetch encountered (Count)
system.cpu.fetch.predictedBranches            4170873                       # Number of branches that fetch has predicted taken (Count)
system.cpu.fetch.cycles                      37532569                       # Number of cycles fetch has run and was not squashing or blocked (Cycle)
system.cpu.fetch.squashCycles                 1936958                       # Number of cycles fetch has spent squashing (Cycle)
system.cpu.fetch.cacheLines                  15426022                       # Number of cache lines fetched (Count)
system.cpu.fetch.icacheSquashes                 69353                       # Number of outstanding Icache misses that were squashed (Count)
system.cpu.fetch.nisnDist::samples           54818116                       # Number of instructions fetched each cycle (Total) (Count)
system.cpu.fetch.nisnDist::mean              3.151302                       # Number of instructions fetched each cycle (Total) (Count)
system.cpu.fetch.nisnDist::stdev             3.655079                       # Number of instructions fetched each cycle (Total) (Count)
system.cpu.fetch.nisnDist::underflows               0      0.00%      0.00% # Number of instructions fetched each cycle (Total) (Count)
system.cpu.fetch.nisnDist::0                 27946944     50.98%     50.98% # Number of instructions fetched each cycle (Total) (Count)
system.cpu.fetch.nisnDist::1                  2539048      4.63%     55.61% # Number of instructions fetched each cycle (Total) (Count)
system.cpu.fetch.nisnDist::2                  1665566      3.04%     58.65% # Number of instructions fetched each cycle (Total) (Count)
system.cpu.fetch.nisnDist::3                   845760      1.54%     60.19% # Number of instructions fetched each cycle (Total) (Count)
system.cpu.fetch.nisnDist::4                   687210      1.25%     61.45% # Number of instructions fetched each cycle (Total) (Count)
system.cpu.fetch.nisnDist::5                   842536      1.54%     62.98% # Number of instructions fetched each cycle (Total) (Count)
system.cpu.fetch.nisnDist::6                  1732808      3.16%     66.15% # Number of instructions fetched each cycle (Total) (Count)
system.cpu.fetch.nisnDist::7                  1483330      2.71%     68.85% # Number of instructions fetched each cycle (Total) (Count)
system.cpu.fetch.nisnDist::8                 17074914     31.15%    100.00% # Number of instructions fetched each cycle (Total) (Count)
system.cpu.fetch.nisnDist::overflows                0      0.00%    100.00% # Number of instructions fetched each cycle (Total) (Count)
system.cpu.fetch.nisnDist::min_value                0                       # Number of instructions fetched each cycle (Total) (Count)
system.cpu.fetch.nisnDist::max_value                8                       # Number of instructions fetched each cycle (Total) (Count)
system.cpu.fetch.nisnDist::total             54818116                       # Number of instructions fetched each cycle (Total) (Count)
system.cpu.fetch.branchRate                  0.130797                       # Number of branch fetches per cycle (Ratio)
system.cpu.fetch.rate                        3.150318                       # Number of inst fetches per cycle ((Count/Cycle))
system.cpu.icache.demandHits::cpu.inst       15425475                       # number of demand (read+write) hits (Count)
system.cpu.icache.demandHits::total          15425475                       # number of demand (read+write) hits (Count)
system.cpu.icache.overallHits::cpu.inst      15425475                       # number of overall hits (Count)
system.cpu.icache.overallHits::total         15425475                       # number of overall hits (Count)
system.cpu.icache.demandMisses::cpu.inst          547                       # number of demand (read+write) misses (Count)
system.cpu.icache.demandMisses::total             547                       # number of demand (read+write) misses (Count)
system.cpu.icache.overallMisses::cpu.inst          547                       # number of overall misses (Count)
system.cpu.icache.overallMisses::total            547                       # number of overall misses (Count)
system.cpu.icache.demandMissLatency::cpu.inst     50752000                       # number of demand (read+write) miss ticks (Tick)
system.cpu.icache.demandMissLatency::total     50752000                       # number of demand (read+write) miss ticks (Tick)
system.cpu.icache.overallMissLatency::cpu.inst     50752000                       # number of overall miss ticks (Tick)
system.cpu.icache.overallMissLatency::total     50752000                       # number of overall miss ticks (Tick)
system.cpu.icache.demandAccesses::cpu.inst     15426022                       # number of demand (read+write) accesses (Count)
system.cpu.icache.demandAccesses::total      15426022                       # number of demand (read+write) accesses (Count)
system.cpu.icache.overallAccesses::cpu.inst     15426022                       # number of overall (read+write) accesses (Count)
system.cpu.icache.overallAccesses::total     15426022                       # number of overall (read+write) accesses (Count)
system.cpu.icache.demandMissRate::cpu.inst     0.000035                       # miss rate for demand accesses (Ratio)
system.cpu.icache.demandMissRate::total      0.000035                       # miss rate for demand accesses (Ratio)
system.cpu.icache.overallMissRate::cpu.inst     0.000035                       # miss rate for overall accesses (Ratio)
system.cpu.icache.overallMissRate::total     0.000035                       # miss rate for overall accesses (Ratio)
system.cpu.icache.demandAvgMissLatency::cpu.inst 92782.449726                       # average overall miss latency in ticks ((Tick/Count))
system.cpu.icache.demandAvgMissLatency::total 92782.449726                       # average overall miss latency in ticks ((Tick/Count))
system.cpu.icache.overallAvgMissLatency::cpu.inst 92782.449726                       # average overall miss latency ((Tick/Count))
system.cpu.icache.overallAvgMissLatency::total 92782.449726                       # average overall miss latency ((Tick/Count))
system.cpu.icache.blockedCycles::no_mshrs          396                       # number of cycles access was blocked (Cycle)
system.cpu.icache.blockedCycles::no_targets            0                       # number of cycles access was blocked (Cycle)
system.cpu.icache.blockedCauses::no_mshrs            3                       # number of times access was blocked (Count)
system.cpu.icache.blockedCauses::no_targets            0                       # number of times access was blocked (Count)
system.cpu.icache.avgBlocked::no_mshrs            132                       # average number of cycles each access was blocked ((Cycle/Count))
system.cpu.icache.avgBlocked::no_targets          nan                       # average number of cycles each access was blocked ((Cycle/Count))
system.cpu.icache.demandMshrHits::cpu.inst          164                       # number of demand (read+write) MSHR hits (Count)
system.cpu.icache.demandMshrHits::total           164                       # number of demand (read+write) MSHR hits (Count)
system.cpu.icache.overallMshrHits::cpu.inst          164                       # number of overall MSHR hits (Count)
system.cpu.icache.overallMshrHits::total          164                       # number of overall MSHR hits (Count)
system.cpu.icache.demandMshrMisses::cpu.inst          383                       # number of demand (read+write) MSHR misses (Count)
system.cpu.icache.demandMshrMisses::total          383                       # number of demand (read+write) MSHR misses (Count)
system.cpu.icache.overallMshrMisses::cpu.inst          383                       # number of overall MSHR misses (Count)
system.cpu.icache.overallMshrMisses::total          383                       # number of overall MSHR misses (Count)
system.cpu.icache.demandMshrMissLatency::cpu.inst     38307000                       # number of demand (read+write) MSHR miss ticks (Tick)
system.cpu.icache.demandMshrMissLatency::total     38307000                       # number of demand (read+write) MSHR miss ticks (Tick)
system.cpu.icache.overallMshrMissLatency::cpu.inst     38307000                       # number of overall MSHR miss ticks (Tick)
system.cpu.icache.overallMshrMissLatency::total     38307000                       # number of overall MSHR miss ticks (Tick)
system.cpu.icache.demandMshrMissRate::cpu.inst     0.000025                       # mshr miss ratio for demand accesses (Ratio)
system.cpu.icache.demandMshrMissRate::total     0.000025                       # mshr miss ratio for demand accesses (Ratio)
system.cpu.icache.overallMshrMissRate::cpu.inst     0.000025                       # mshr miss ratio for overall accesses (Ratio)
system.cpu.icache.overallMshrMissRate::total     0.000025                       # mshr miss ratio for overall accesses (Ratio)
system.cpu.icache.demandAvgMshrMissLatency::cpu.inst 100018.276762                       # average overall mshr miss latency ((Tick/Count))
system.cpu.icache.demandAvgMshrMissLatency::total 100018.276762                       # average overall mshr miss latency ((Tick/Count))
system.cpu.icache.overallAvgMshrMissLatency::cpu.inst 100018.276762                       # average overall mshr miss latency ((Tick/Count))
system.cpu.icache.overallAvgMshrMissLatency::total 100018.276762                       # average overall mshr miss latency ((Tick/Count))
system.cpu.icache.replacements                    147                       # number of replacements (Count)
system.cpu.icache.ReadReq.hits::cpu.inst     15425475                       # number of ReadReq hits (Count)
system.cpu.icache.ReadReq.hits::total        15425475                       # number of ReadReq hits (Count)
system.cpu.icache.ReadReq.misses::cpu.inst          547                       # number of ReadReq misses (Count)
system.cpu.icache.ReadReq.misses::total           547                       # number of ReadReq misses (Count)
system.cpu.icache.ReadReq.missLatency::cpu.inst     50752000                       # number of ReadReq miss ticks (Tick)
system.cpu.icache.ReadReq.missLatency::total     50752000                       # number of ReadReq miss ticks (Tick)
system.cpu.icache.ReadReq.accesses::cpu.inst     15426022                       # number of ReadReq accesses(hits+misses) (Count)
system.cpu.icache.ReadReq.accesses::total     15426022                       # number of ReadReq accesses(hits+misses) (Count)
system.cpu.icache.ReadReq.missRate::cpu.inst     0.000035                       # miss rate for ReadReq accesses (Ratio)
system.cpu.icache.ReadReq.missRate::total     0.000035                       # miss rate for ReadReq accesses (Ratio)
system.cpu.icache.ReadReq.avgMissLatency::cpu.inst 92782.449726                       # average ReadReq miss latency ((Tick/Count))
system.cpu.icache.ReadReq.avgMissLatency::total 92782.449726                       # average ReadReq miss latency ((Tick/Count))
system.cpu.icache.ReadReq.mshrHits::cpu.inst          164                       # number of ReadReq MSHR hits (Count)
system.cpu.icache.ReadReq.mshrHits::total          164                       # number of ReadReq MSHR hits (Count)
system.cpu.icache.ReadReq.mshrMisses::cpu.inst          383                       # number of ReadReq MSHR misses (Count)
system.cpu.icache.ReadReq.mshrMisses::total          383                       # number of ReadReq MSHR misses (Count)
system.cpu.icache.ReadReq.mshrMissLatency::cpu.inst     38307000                       # number of ReadReq MSHR miss ticks (Tick)
system.cpu.icache.ReadReq.mshrMissLatency::total     38307000                       # number of ReadReq MSHR miss ticks (Tick)
system.cpu.icache.ReadReq.mshrMissRate::cpu.inst     0.000025                       # mshr miss rate for ReadReq accesses (Ratio)
system.cpu.icache.ReadReq.mshrMissRate::total     0.000025                       # mshr miss rate for ReadReq accesses (Ratio)
system.cpu.icache.ReadReq.avgMshrMissLatency::cpu.inst 100018.276762                       # average ReadReq mshr miss latency ((Tick/Count))
system.cpu.icache.ReadReq.avgMshrMissLatency::total 100018.276762                       # average ReadReq mshr miss latency ((Tick/Count))
system.cpu.icache.power_state.pwrStateResidencyTicks::UNDEFINED  54834527000                       # Cumulative time (in ticks) in various power states (Tick)
system.cpu.icache.tags.tagsInUse           210.959719                       # Average ticks per tags in use ((Tick/Count))
system.cpu.icache.tags.totalRefs             15425857                       # Total number of references to valid blocks. (Count)
system.cpu.icache.tags.sampledRefs                382                       # Sample count of references to valid blocks. (Count)
system.cpu.icache.tags.avgRefs           40381.824607                       # Average number of references to valid blocks. ((Count/Count))
system.cpu.icache.tags.warmupTick              107000                       # The tick when the warmup percentage was hit. (Tick)
system.cpu.icache.tags.occupancies::cpu.inst   210.959719                       # Average occupied blocks per tick, per requestor ((Count/Tick))
system.cpu.icache.tags.avgOccs::cpu.inst     0.824061                       # Average percentage of cache occupancy ((Ratio/Tick))
system.cpu.icache.tags.avgOccs::total        0.824061                       # Average percentage of cache occupancy ((Ratio/Tick))
system.cpu.icache.tags.occupanciesTaskId::1024          235                       # Occupied blocks per task id (Count)
system.cpu.icache.tags.ageTaskId_1024::0           41                       # Occupied blocks per task id, per block age (Count)
system.cpu.icache.tags.ageTaskId_1024::4          194                       # Occupied blocks per task id, per block age (Count)
system.cpu.icache.tags.ratioOccsTaskId::1024     0.917969                       # Ratio of occupied blocks and all blocks, per task id (Ratio)
system.cpu.icache.tags.tagAccesses           30852426                       # Number of tag accesses (Count)
system.cpu.icache.tags.dataAccesses          30852426                       # Number of data accesses (Count)
system.cpu.icache.tags.power_state.pwrStateResidencyTicks::UNDEFINED  54834527000                       # Cumulative time (in ticks) in various power states (Tick)
system.cpu.iew.idleCycles                           0                       # Number of cycles IEW is idle (Cycle)
system.cpu.iew.squashCycles                    968290                       # Number of cycles IEW is squashing (Cycle)
system.cpu.iew.blockCycles                   10537676                       # Number of cycles IEW is blocking (Cycle)
system.cpu.iew.unblockCycles                        5                       # Number of cycles IEW is unblocking (Cycle)
system.cpu.iew.dispatchedInsts              129188268                       # Number of instructions dispatched to IQ (Count)
system.cpu.iew.dispSquashedInsts                  253                       # Number of squashed instructions skipped by dispatch (Count)
system.cpu.iew.dispLoadInsts                 32415897                       # Number of dispatched load instructions (Count)
system.cpu.iew.dispStoreInsts                13829455                       # Number of dispatched store instructions (Count)
system.cpu.iew.dispNonSpecInsts                    65                       # Number of dispatched non-speculative instructions (Count)
system.cpu.iew.iqFullEvents                         5                       # Number of times the IQ has become full, causing a stall (Count)
system.cpu.iew.lsqFullEvents                        0                       # Number of times the LSQ has become full, causing a stall (Count)
system.cpu.iew.memOrderViolationEvents          10642                       # Number of memory order violations (Count)
system.cpu.iew.predictedTakenIncorrect         371169                       # Number of branches that were predicted taken incorrectly (Count)
system.cpu.iew.predictedNotTakenIncorrect       588195                       # Number of branches that were predicted not taken incorrectly (Count)
system.cpu.iew.branchMispredicts               959364                       # Number of branch mispredicts detected at execute (Count)
system.cpu.iew.instsToCommit                 74341763                       # Cumulative count of insts sent to commit (Count)
system.cpu.iew.writebackCount                74331486                       # Cumulative count of insts written-back (Count)
system.cpu.iew.producerInst                  62300544                       # Number of instructions producing a value (Count)
system.cpu.iew.consumerInst                  65560769                       # Number of instructions consuming a value (Count)
system.cpu.iew.wbRate                        1.355560                       # Insts written-back per cycle ((Count/Cycle))
system.cpu.iew.wbFanout                      0.950272                       # Average fanout of values written-back ((Count/Count))
system.cpu.lsq0.forwLoads                    13328472                       # Number of loads that had data forwarded from stores (Count)
system.cpu.lsq0.squashedLoads                23215028                       # Number of loads squashed (Count)
system.cpu.lsq0.ignoredResponses                 1012                       # Number of memory responses ignored because the instruction is squashed (Count)
system.cpu.lsq0.memOrderViolation               10642                       # Number of memory ordering violations (Count)
system.cpu.lsq0.squashedStores                9728328                       # Number of stores squashed (Count)
system.cpu.lsq0.rescheduledLoads                   14                       # Number of loads that were rescheduled (Count)
system.cpu.lsq0.blockedByCache                     66                       # Number of times an access to memory failed due to the cache being blocked (Count)
system.cpu.lsq0.loadToUse::samples            9200869                       # Distribution of cycle latency between the first time a load is issued and its completion (Unspecified)
system.cpu.lsq0.loadToUse::mean              2.627458                       # Distribution of cycle latency between the first time a load is issued and its completion (Unspecified)
system.cpu.lsq0.loadToUse::stdev             0.855355                       # Distribution of cycle latency between the first time a load is issued and its completion (Unspecified)
system.cpu.lsq0.loadToUse::0-9                9200755    100.00%    100.00% # Distribution of cycle latency between the first time a load is issued and its completion (Unspecified)
system.cpu.lsq0.loadToUse::10-19                    5      0.00%    100.00% # Distribution of cycle latency between the first time a load is issued and its completion (Unspecified)
system.cpu.lsq0.loadToUse::20-29                    3      0.00%    100.00% # Distribution of cycle latency between the first time a load is issued and its completion (Unspecified)
system.cpu.lsq0.loadToUse::30-39                    3      0.00%    100.00% # Distribution of cycle latency between the first time a load is issued and its completion (Unspecified)
system.cpu.lsq0.loadToUse::40-49                    4      0.00%    100.00% # Distribution of cycle latency between the first time a load is issued and its completion (Unspecified)
[...]
system.mem_ctrl.requestorReadTotalLat::cpu.inst     10612250                       # Per-requestor read total memory access latency (Tick)
system.mem_ctrl.requestorReadTotalLat::cpu.data      6028000                       # Per-requestor read total memory access latency (Tick)
system.mem_ctrl.requestorReadAvgLat::cpu.inst     28837.64                       # Per-requestor read average memory access latency ((Tick/Count))
system.mem_ctrl.requestorReadAvgLat::cpu.data     28037.21                       # Per-requestor read average memory access latency ((Tick/Count))
system.mem_ctrl.dram.bytesRead::cpu.inst        23552                       # Number of bytes read from this memory (Byte)
system.mem_ctrl.dram.bytesRead::cpu.data        13760                       # Number of bytes read from this memory (Byte)
system.mem_ctrl.dram.bytesRead::total           37312                       # Number of bytes read from this memory (Byte)
system.mem_ctrl.dram.bytesInstRead::cpu.inst        23552                       # Number of instructions bytes read from this memory (Byte)
system.mem_ctrl.dram.bytesInstRead::total        23552                       # Number of instructions bytes read from this memory (Byte)
system.mem_ctrl.dram.numReads::cpu.inst           368                       # Number of read requests responded to by this memory (Count)
system.mem_ctrl.dram.numReads::cpu.data           215                       # Number of read requests responded to by this memory (Count)
system.mem_ctrl.dram.numReads::total              583                       # Number of read requests responded to by this memory (Count)
system.mem_ctrl.dram.bwRead::cpu.inst          429510                       # Total read bandwidth from this memory ((Byte/Second))
system.mem_ctrl.dram.bwRead::cpu.data          250937                       # Total read bandwidth from this memory ((Byte/Second))
system.mem_ctrl.dram.bwRead::total             680447                       # Total read bandwidth from this memory ((Byte/Second))
system.mem_ctrl.dram.bwInstRead::cpu.inst       429510                       # Instruction read bandwidth from this memory ((Byte/Second))
system.mem_ctrl.dram.bwInstRead::total         429510                       # Instruction read bandwidth from this memory ((Byte/Second))
system.mem_ctrl.dram.bwTotal::cpu.inst         429510                       # Total bandwidth to/from this memory ((Byte/Second))
system.mem_ctrl.dram.bwTotal::cpu.data         250937                       # Total bandwidth to/from this memory ((Byte/Second))
system.mem_ctrl.dram.bwTotal::total            680447                       # Total bandwidth to/from this memory ((Byte/Second))
system.mem_ctrl.dram.readBursts                   583                       # Number of DRAM read bursts (Count)
system.mem_ctrl.dram.writeBursts                    0                       # Number of DRAM write bursts (Count)
system.mem_ctrl.dram.perBankRdBursts::0           138                       # Per bank write bursts (Count)
system.mem_ctrl.dram.perBankRdBursts::1            73                       # Per bank write bursts (Count)
system.mem_ctrl.dram.perBankRdBursts::2            14                       # Per bank write bursts (Count)
system.mem_ctrl.dram.perBankRdBursts::3            23                       # Per bank write bursts (Count)
system.mem_ctrl.dram.perBankRdBursts::4            17                       # Per bank write bursts (Count)
system.mem_ctrl.dram.perBankRdBursts::5            59                       # Per bank write bursts (Count)
system.mem_ctrl.dram.perBankRdBursts::6            31                       # Per bank write bursts (Count)
system.mem_ctrl.dram.perBankRdBursts::7             4                       # Per bank write bursts (Count)
system.mem_ctrl.dram.perBankRdBursts::8            25                       # Per bank write bursts (Count)
system.mem_ctrl.dram.perBankRdBursts::9            53                       # Per bank write bursts (Count)
system.mem_ctrl.dram.perBankRdBursts::10            3                       # Per bank write bursts (Count)
system.mem_ctrl.dram.perBankRdBursts::11           27                       # Per bank write bursts (Count)
system.mem_ctrl.dram.perBankRdBursts::12           18                       # Per bank write bursts (Count)
system.mem_ctrl.dram.perBankRdBursts::13           13                       # Per bank write bursts (Count)
system.mem_ctrl.dram.perBankRdBursts::14           49                       # Per bank write bursts (Count)
system.mem_ctrl.dram.perBankRdBursts::15           36                       # Per bank write bursts (Count)
system.mem_ctrl.dram.perBankWrBursts::0             0                       # Per bank write bursts (Count)
system.mem_ctrl.dram.perBankWrBursts::1             0                       # Per bank write bursts (Count)
system.mem_ctrl.dram.perBankWrBursts::2             0                       # Per bank write bursts (Count)
system.mem_ctrl.dram.perBankWrBursts::3             0                       # Per bank write bursts (Count)
system.mem_ctrl.dram.perBankWrBursts::4             0                       # Per bank write bursts (Count)
system.mem_ctrl.dram.perBankWrBursts::5             0                       # Per bank write bursts (Count)
system.mem_ctrl.dram.perBankWrBursts::6             0                       # Per bank write bursts (Count)
system.mem_ctrl.dram.perBankWrBursts::7             0                       # Per bank write bursts (Count)
system.mem_ctrl.dram.perBankWrBursts::8             0                       # Per bank write bursts (Count)
system.mem_ctrl.dram.perBankWrBursts::9             0                       # Per bank write bursts (Count)
system.mem_ctrl.dram.perBankWrBursts::10            0                       # Per bank write bursts (Count)
system.mem_ctrl.dram.perBankWrBursts::11            0                       # Per bank write bursts (Count)
system.mem_ctrl.dram.perBankWrBursts::12            0                       # Per bank write bursts (Count)
system.mem_ctrl.dram.perBankWrBursts::13            0                       # Per bank write bursts (Count)
system.mem_ctrl.dram.perBankWrBursts::14            0                       # Per bank write bursts (Count)
system.mem_ctrl.dram.perBankWrBursts::15            0                       # Per bank write bursts (Count)
system.mem_ctrl.dram.totQLat                  5709000                       # Total ticks spent queuing (Tick)
system.mem_ctrl.dram.totBusLat                2915000                       # Total ticks spent in databus transfers (Tick)
system.mem_ctrl.dram.totMemAccLat            16640250                       # Total ticks spent from burst creation until serviced by the DRAM (Tick)
system.mem_ctrl.dram.avgQLat                  9792.45                       # Average queueing delay per DRAM burst ((Tick/Count))
system.mem_ctrl.dram.avgBusLat                5000.00                       # Average bus latency per DRAM burst ((Tick/Count))
system.mem_ctrl.dram.avgMemAccLat            28542.45                       # Average memory access latency per DRAM burst ((Tick/Count))
system.mem_ctrl.dram.readRowHits                  459                       # Number of row buffer hits during reads (Count)
system.mem_ctrl.dram.writeRowHits                   0                       # Number of row buffer hits during writes (Count)
system.mem_ctrl.dram.readRowHitRate             78.73                       # Row buffer hit rate for reads (Ratio)
system.mem_ctrl.dram.writeRowHitRate              nan                       # Row buffer hit rate for writes (Ratio)
system.mem_ctrl.dram.bytesPerActivate::samples          115                       # Bytes accessed per row activation (Byte)
system.mem_ctrl.dram.bytesPerActivate::mean   302.747826                       # Bytes accessed per row activation (Byte)
system.mem_ctrl.dram.bytesPerActivate::gmean   193.687922                       # Bytes accessed per row activation (Byte)
system.mem_ctrl.dram.bytesPerActivate::stdev   308.837942                       # Bytes accessed per row activation (Byte)
system.mem_ctrl.dram.bytesPerActivate::0-127           32     27.83%     27.83% # Bytes accessed per row activation (Byte)
system.mem_ctrl.dram.bytesPerActivate::128-255           36     31.30%     59.13% # Bytes accessed per row activation (Byte)
system.mem_ctrl.dram.bytesPerActivate::256-383           18     15.65%     74.78% # Bytes accessed per row activation (Byte)
system.mem_ctrl.dram.bytesPerActivate::384-511            7      6.09%     80.87% # Bytes accessed per row activation (Byte)
system.mem_ctrl.dram.bytesPerActivate::512-639            4      3.48%     84.35% # Bytes accessed per row activation (Byte)
system.mem_ctrl.dram.bytesPerActivate::640-767            1      0.87%     85.22% # Bytes accessed per row activation (Byte)
system.mem_ctrl.dram.bytesPerActivate::768-895            3      2.61%     87.83% # Bytes accessed per row activation (Byte)
system.mem_ctrl.dram.bytesPerActivate::896-1023            2      1.74%     89.57% # Bytes accessed per row activation (Byte)
system.mem_ctrl.dram.bytesPerActivate::1024-1151           12     10.43%    100.00% # Bytes accessed per row activation (Byte)
system.mem_ctrl.dram.bytesPerActivate::total          115                       # Bytes accessed per row activation (Byte)
system.mem_ctrl.dram.bytesRead                  37312                       # Total bytes read (Byte)
system.mem_ctrl.dram.bytesWritten                   0                       # Total bytes written (Byte)
system.mem_ctrl.dram.avgRdBW                 0.680447                       # Average DRAM read bandwidth in MiBytes/s ((Byte/Second))
system.mem_ctrl.dram.avgWrBW                        0                       # Average DRAM write bandwidth in MiBytes/s ((Byte/Second))
system.mem_ctrl.dram.peakBW                  12800.00                       # Theoretical peak bandwidth in MiByte/s ((Byte/Second))
system.mem_ctrl.dram.busUtil                     0.01                       # Data bus utilization in percentage (Ratio)
system.mem_ctrl.dram.busUtilRead                 0.01                       # Data bus utilization in percentage for reads (Ratio)
system.mem_ctrl.dram.busUtilWrite                0.00                       # Data bus utilization in percentage for writes (Ratio)
system.mem_ctrl.dram.pageHitRate                78.73                       # Row buffer hit rate, read and write combined (Ratio)
system.mem_ctrl.dram.power_state.pwrStateResidencyTicks::UNDEFINED  54834527000                       # Cumulative time (in ticks) in various power states (Tick)
system.mem_ctrl.dram.rank0.actEnergy           549780                       # Energy for activate commands per rank (pJ) (Joule)
system.mem_ctrl.dram.rank0.preEnergy           269445                       # Energy for precharge commands per rank (pJ) (Joule)
system.mem_ctrl.dram.rank0.readEnergy         2563260                       # Energy for read commands per rank (pJ) (Joule)
system.mem_ctrl.dram.rank0.writeEnergy              0                       # Energy for write commands per rank (pJ) (Joule)
system.mem_ctrl.dram.rank0.refreshEnergy 4328294880.000001                       # Energy for refresh commands per rank (pJ) (Joule)
system.mem_ctrl.dram.rank0.actBackEnergy    805990260                       # Energy for active background per rank (pJ) (Joule)
system.mem_ctrl.dram.rank0.preBackEnergy  20377729920                       # Energy for precharge background per rank (pJ) (Joule)
system.mem_ctrl.dram.rank0.actPowerDownEnergy            0                       # Energy for active power-down per rank (pJ) (Joule)
system.mem_ctrl.dram.rank0.prePowerDownEnergy            0                       # Energy for precharge power-down per rank (pJ) (Joule)
system.mem_ctrl.dram.rank0.selfRefreshEnergy            0                       # Energy for self refresh per rank (pJ) (Joule)
system.mem_ctrl.dram.rank0.totalEnergy    25515397545                       # Total energy per rank (pJ) (Joule)
system.mem_ctrl.dram.rank0.averagePower    465.316270                       # Core power per rank (mW) (Watt)
system.mem_ctrl.dram.rank0.totalIdleTime            0                       # Total Idle time Per DRAM Rank (Tick)
system.mem_ctrl.dram.rank0.pwrStateTime::IDLE  52970121000                       # Time in different power states (Tick)
system.mem_ctrl.dram.rank0.pwrStateTime::REF   1830920000                       # Time in different power states (Tick)
system.mem_ctrl.dram.rank0.pwrStateTime::SREF            0                       # Time in different power states (Tick)
system.mem_ctrl.dram.rank0.pwrStateTime::PRE_PDN            0                       # Time in different power states (Tick)
system.mem_ctrl.dram.rank0.pwrStateTime::ACT     33486000                       # Time in different power states (Tick)
system.mem_ctrl.dram.rank0.pwrStateTime::ACT_PDN            0                       # Time in different power states (Tick)
system.mem_ctrl.dram.rank1.actEnergy           335580                       # Energy for activate commands per rank (pJ) (Joule)
system.mem_ctrl.dram.rank1.preEnergy           166980                       # Energy for precharge commands per rank (pJ) (Joule)
system.mem_ctrl.dram.rank1.readEnergy         1599360                       # Energy for read commands per rank (pJ) (Joule)
system.mem_ctrl.dram.rank1.writeEnergy              0                       # Energy for write commands per rank (pJ) (Joule)
system.mem_ctrl.dram.rank1.refreshEnergy 4328294880.000001                       # Energy for refresh commands per rank (pJ) (Joule)
system.mem_ctrl.dram.rank1.actBackEnergy    806014770                       # Energy for active background per rank (pJ) (Joule)
system.mem_ctrl.dram.rank1.preBackEnergy  20377709280                       # Energy for precharge background per rank (pJ) (Joule)
system.mem_ctrl.dram.rank1.actPowerDownEnergy            0                       # Energy for active power-down per rank (pJ) (Joule)
system.mem_ctrl.dram.rank1.prePowerDownEnergy            0                       # Energy for precharge power-down per rank (pJ) (Joule)
system.mem_ctrl.dram.rank1.selfRefreshEnergy            0                       # Energy for self refresh per rank (pJ) (Joule)
system.mem_ctrl.dram.rank1.totalEnergy    25514120850                       # Total energy per rank (pJ) (Joule)
system.mem_ctrl.dram.rank1.averagePower    465.292987                       # Core power per rank (mW) (Watt)
system.mem_ctrl.dram.rank1.totalIdleTime            0                       # Total Idle time Per DRAM Rank (Tick)
system.mem_ctrl.dram.rank1.pwrStateTime::IDLE  52970067750                       # Time in different power states (Tick)
system.mem_ctrl.dram.rank1.pwrStateTime::REF   1830920000                       # Time in different power states (Tick)
system.mem_ctrl.dram.rank1.pwrStateTime::SREF            0                       # Time in different power states (Tick)
system.mem_ctrl.dram.rank1.pwrStateTime::PRE_PDN            0                       # Time in different power states (Tick)
system.mem_ctrl.dram.rank1.pwrStateTime::ACT     33539250                       # Time in different power states (Tick)
system.mem_ctrl.dram.rank1.pwrStateTime::ACT_PDN            0                       # Time in different power states (Tick)
system.mem_ctrl.power_state.pwrStateResidencyTicks::UNDEFINED  54834527000                       # Cumulative time (in ticks) in various power states (Tick)
system.membus.transDist::ReadResp                 475                       # Transaction distribution (Count)
system.membus.transDist::ReadExReq                108                       # Transaction distribution (Count)
system.membus.transDist::ReadExResp               108                       # Transaction distribution (Count)
system.membus.transDist::ReadSharedReq            475                       # Transaction distribution (Count)
system.membus.transDist::InvalidateReq              7                       # Transaction distribution (Count)
system.membus.pktCount_system.l2cache.mem_side_port::system.mem_ctrl.port         1173                       # Packet count per connected requestor and responder (Count)
system.membus.pktCount::total                    1173                       # Packet count per connected requestor and responder (Count)
system.membus.pktSize_system.l2cache.mem_side_port::system.mem_ctrl.port        37312                       # Cumulative packet size per connected requestor and responder (Byte)
system.membus.pktSize::total                    37312                       # Cumulative packet size per connected requestor and responder (Byte)
system.membus.snoops                                0                       # Total snoops (Count)
system.membus.snoopTraffic                          0                       # Total snoop traffic (Byte)
system.membus.snoopFanout::samples                590                       # Request fanout histogram (Count)
system.membus.snoopFanout::mean                     0                       # Request fanout histogram (Count)
system.membus.snoopFanout::stdev                    0                       # Request fanout histogram (Count)
system.membus.snoopFanout::underflows               0      0.00%      0.00% # Request fanout histogram (Count)
system.membus.snoopFanout::0                      590    100.00%    100.00% # Request fanout histogram (Count)
system.membus.snoopFanout::1                        0      0.00%    100.00% # Request fanout histogram (Count)
system.membus.snoopFanout::overflows                0      0.00%    100.00% # Request fanout histogram (Count)
system.membus.snoopFanout::min_value                0                       # Request fanout histogram (Count)
system.membus.snoopFanout::max_value                0                       # Request fanout histogram (Count)
system.membus.snoopFanout::total                  590                       # Request fanout histogram (Count)
system.membus.power_state.pwrStateResidencyTicks::UNDEFINED  54834527000                       # Cumulative time (in ticks) in various power states (Tick)
system.membus.reqLayer0.occupancy              590000                       # Layer occupancy (ticks) (Tick)
system.membus.reqLayer0.utilization               0.0                       # Layer utilization (Ratio)
system.membus.respLayer0.occupancy            3090250                       # Layer occupancy (ticks) (Tick)
system.membus.respLayer0.utilization              0.0                       # Layer utilization (Ratio)
system.membus.snoop_filter.totRequests            590                       # Total number of requests made to the snoop filter. (Count)
system.membus.snoop_filter.hitSingleRequests            0                       # Number of requests hitting in the snoop filter with a single holder of the requested data. (Count)
system.membus.snoop_filter.hitMultiRequests            0                       # Number of requests hitting in the snoop filter with multiple (>1) holders of the requested data. (Count)
system.membus.snoop_filter.totSnoops                0                       # Total number of snoops made to the snoop filter. (Count)
system.membus.snoop_filter.hitSingleSnoops            0                       # Number of snoops hitting in the snoop filter with a single holder of the requested data. (Count)
system.membus.snoop_filter.hitMultiSnoops            0                       # Number of snoops hitting in the snoop filter with multiple (>1) holders of the requested data. (Count)
system.workload.inst.arm                            0                       # number of arm instructions executed (Count)
system.workload.inst.quiesce                        0                       # number of quiesce instructions executed (Count)

---------- End Simulation Statistics   ----------
