
---------- Begin Simulation Statistics ----------
final_tick                                11033197000                       # Number of ticks from beginning of simulation (restored from checkpoints and never reset)
host_inst_rate                                 660449                       # Simulator instruction rate (inst/s)
host_mem_usage                                 815856                       # Number of bytes of host memory used
host_op_rate                                   660460                       # Simulator op (including micro ops) rate (op/s)
host_seconds                                    88.43                       # Real time elapsed on the host
host_tick_rate                              124762926                       # Simulator tick rate (ticks/s)
sim_freq                                 1000000000000                       # Frequency of simulated ticks
sim_insts                                    58405612                       # Number of instructions simulated
sim_ops                                      58406656                       # Number of ops (including micro ops) simulated
sim_seconds                                  0.011033                       # Number of seconds simulated
sim_ticks                                 11033197000                       # Number of ticks simulated
system.cpu.branchPred.BTBCorrect                    0                       # Number of correct BTB predictions (this stat may not work properly.
system.cpu.branchPred.BTBHitPct             98.597976                       # BTB Hit Percentage
system.cpu.branchPred.BTBHits                  100917                       # Number of BTB hits
system.cpu.branchPred.BTBLookups               102352                       # Number of BTB lookups
system.cpu.branchPred.RASInCorrect                  0                       # Number of incorrect RAS predictions.
system.cpu.branchPred.condIncorrect               509                       # Number of conditional branches incorrect
system.cpu.branchPred.condPredicted            102633                       # Number of conditional branches predicted
system.cpu.branchPred.indirectHits                  9                       # Number of indirect target hits.
system.cpu.branchPred.indirectLookups             137                       # Number of indirect predictor lookups.
system.cpu.branchPred.indirectMisses              128                       # Number of indirect misses.
system.cpu.branchPred.lookups                  103555                       # Number of BP lookups
system.cpu.branchPred.usedRAS                     267                       # Number of times the RAS was used to get a target.
system.cpu.branchPredindirectMispredicted           35                       # Number of mispredicted indirect branches.
system.cpu.cc_regfile_reads                    302913                       # number of cc regfile reads
system.cpu.cc_regfile_writes                   302853                       # number of cc regfile writes
system.cpu.commit.amos                             10                       # Number of atomic instructions committed
system.cpu.commit.branchMispredicts               338                       # The number of times a branch was mispredicted
system.cpu.commit.branches                     101304                       # Number of branches committed
system.cpu.commit.bw_lim_events               5200429                       # number cycles where commit BW limit reached
system.cpu.commit.commitNonSpecStalls              38                       # The number of times commit has been forced to stall to communicate backwards
system.cpu.commit.commitSquashedInsts            7522                       # The number of squashed insts skipped by commit
system.cpu.commit.committedInsts             58405624                       # Number of instructions committed
system.cpu.commit.committedOps               58406668                       # Number of ops (including micro ops) committed
system.cpu.commit.committed_per_cycle::samples     11014216                       # Number of insts commited each cycle
system.cpu.commit.committed_per_cycle::mean     5.302844                       # Number of insts commited each cycle
system.cpu.commit.committed_per_cycle::stdev     2.990675                       # Number of insts commited each cycle
system.cpu.commit.committed_per_cycle::underflows            0      0.00%      0.00% # Number of insts commited each cycle
system.cpu.commit.committed_per_cycle::0       711700      6.46%      6.46% # Number of insts commited each cycle
system.cpu.commit.committed_per_cycle::1      1501480     13.63%     20.09% # Number of insts commited each cycle
system.cpu.commit.committed_per_cycle::2       800182      7.26%     27.36% # Number of insts commited each cycle
system.cpu.commit.committed_per_cycle::3       200409      1.82%     29.18% # Number of insts commited each cycle
system.cpu.commit.committed_per_cycle::4      1099806      9.99%     39.16% # Number of insts commited each cycle
system.cpu.commit.committed_per_cycle::5       600205      5.45%     44.61% # Number of insts commited each cycle
system.cpu.commit.committed_per_cycle::6       600119      5.45%     50.06% # Number of insts commited each cycle
system.cpu.commit.committed_per_cycle::7       299886      2.72%     52.78% # Number of insts commited each cycle
system.cpu.commit.committed_per_cycle::8      5200429     47.22%    100.00% # Number of insts commited each cycle
system.cpu.commit.committed_per_cycle::overflows            0      0.00%    100.00% # Number of insts commited each cycle
system.cpu.commit.committed_per_cycle::min_value            0                       # Number of insts commited each cycle
system.cpu.commit.committed_per_cycle::max_value            8                       # Number of insts commited each cycle
system.cpu.commit.committed_per_cycle::total     11014216                       # Number of insts commited each cycle
system.cpu.commit.fp_insts                          0                       # Number of committed floating point instructions.
system.cpu.commit.function_calls                  123                       # Number of function calls committed.
system.cpu.commit.int_insts                  58305949                       # Number of committed integer instructions.
system.cpu.commit.loads                        200797                       # Number of loads committed
system.cpu.commit.membars                          14                       # Number of memory barriers committed
system.cpu.commit.op_class_0::No_OpClass           16      0.00%      0.00% # Class of committed instruction
system.cpu.commit.op_class_0::IntAlu         29304751     50.17%     50.17% # Class of committed instruction
system.cpu.commit.op_class_0::IntMult               3      0.00%     50.17% # Class of committed instruction
system.cpu.commit.op_class_0::IntDiv                2      0.00%     50.17% # Class of committed instruction
system.cpu.commit.op_class_0::FloatAdd              0      0.00%     50.17% # Class of committed instruction
system.cpu.commit.op_class_0::FloatCmp              0      0.00%     50.17% # Class of committed instruction
system.cpu.commit.op_class_0::FloatCvt              0      0.00%     50.17% # Class of committed instruction
system.cpu.commit.op_class_0::FloatMult             0      0.00%     50.17% # Class of committed instruction
system.cpu.commit.op_class_0::FloatMultAcc            0      0.00%     50.17% # Class of committed instruction
system.cpu.commit.op_class_0::FloatDiv              0      0.00%     50.17% # Class of committed instruction
system.cpu.commit.op_class_0::FloatMisc       6400000     10.96%     61.13% # Class of committed instruction
system.cpu.commit.op_class_0::FloatSqrt             0      0.00%     61.13% # Class of committed instruction
system.cpu.commit.op_class_0::SimdAdd               5      0.00%     61.13% # Class of committed instruction
system.cpu.commit.op_class_0::SimdAddAcc            0      0.00%     61.13% # Class of committed instruction
system.cpu.commit.op_class_0::SimdAlu               4      0.00%     61.13% # Class of committed instruction
system.cpu.commit.op_class_0::SimdCmp               4      0.00%     61.13% # Class of committed instruction
system.cpu.commit.op_class_0::SimdCvt               0      0.00%     61.13% # Class of committed instruction
system.cpu.commit.op_class_0::SimdMisc              7      0.00%     61.13% # Class of committed instruction
system.cpu.commit.op_class_0::SimdMult              0      0.00%     61.13% # Class of committed instruction
system.cpu.commit.op_class_0::SimdMultAcc            0      0.00%     61.13% # Class of committed instruction
system.cpu.commit.op_class_0::SimdShift             0      0.00%     61.13% # Class of committed instruction
system.cpu.commit.op_class_0::SimdShiftAcc            0      0.00%     61.13% # Class of committed instruction
system.cpu.commit.op_class_0::SimdDiv               0      0.00%     61.13% # Class of committed instruction
system.cpu.commit.op_class_0::SimdSqrt              0      0.00%     61.13% # Class of committed instruction
system.cpu.commit.op_class_0::SimdFloatAdd            0      0.00%     61.13% # Class of committed instruction
system.cpu.commit.op_class_0::SimdFloatAlu            0      0.00%     61.13% # Class of committed instruction
system.cpu.commit.op_class_0::SimdFloatCmp            0      0.00%     61.13% # Class of committed instruction
system.cpu.commit.op_class_0::SimdFloatCvt            0      0.00%     61.13% # Class of committed instruction
system.cpu.commit.op_class_0::SimdFloatDiv            0      0.00%     61.13% # Class of committed instruction
system.cpu.commit.op_class_0::SimdFloatMisc            0      0.00%     61.13% # Class of committed instruction
system.cpu.commit.op_class_0::SimdFloatMult            0      0.00%     61.13% # Class of committed instruction
system.cpu.commit.op_class_0::SimdFloatMultAcc            0      0.00%     61.13% # Class of committed instruction
system.cpu.commit.op_class_0::SimdFloatSqrt            0      0.00%     61.13% # Class of committed instruction
system.cpu.commit.op_class_0::SimdReduceAdd            0      0.00%     61.13% # Class of committed instruction
system.cpu.commit.op_class_0::SimdReduceAlu            0      0.00%     61.13% # Class of committed instruction
system.cpu.commit.op_class_0::SimdReduceCmp            0      0.00%     61.13% # Class of committed instruction
system.cpu.commit.op_class_0::SimdFloatReduceAdd            0      0.00%     61.13% # Class of committed instruction
system.cpu.commit.op_class_0::SimdFloatReduceCmp            0      0.00%     61.13% # Class of committed instruction
system.cpu.commit.op_class_0::SimdAes               0      0.00%     61.13% # Class of committed instruction
system.cpu.commit.op_class_0::SimdAesMix            0      0.00%     61.13% # Class of committed instruction
system.cpu.commit.op_class_0::SimdSha1Hash            0      0.00%     61.13% # Class of committed instruction
system.cpu.commit.op_class_0::SimdSha1Hash2            0      0.00%     61.13% # Class of committed instruction
system.cpu.commit.op_class_0::SimdSha256Hash            0      0.00%     61.13% # Class of committed instruction
system.cpu.commit.op_class_0::SimdSha256Hash2            0      0.00%     61.13% # Class of committed instruction
system.cpu.commit.op_class_0::SimdShaSigma2            0      0.00%     61.13% # Class of committed instruction
system.cpu.commit.op_class_0::SimdShaSigma3            0      0.00%     61.13% # Class of committed instruction
system.cpu.commit.op_class_0::SimdPredAlu            0      0.00%     61.13% # Class of committed instruction
system.cpu.commit.op_class_0::MemRead          200797      0.34%     61.48% # Class of committed instruction
system.cpu.commit.op_class_0::MemWrite       22501079     38.52%    100.00% # Class of committed instruction
system.cpu.commit.op_class_0::FloatMemRead            0      0.00%    100.00% # Class of committed instruction
system.cpu.commit.op_class_0::FloatMemWrite            0      0.00%    100.00% # Class of committed instruction
system.cpu.commit.op_class_0::IprAccess             0      0.00%    100.00% # Class of committed instruction
system.cpu.commit.op_class_0::InstPrefetch            0      0.00%    100.00% # Class of committed instruction
system.cpu.commit.op_class_0::total          58406668                       # Class of committed instruction
system.cpu.commit.refs                       22701876                       # Number of memory references committed
system.cpu.commit.swp_count                         0                       # Number of s/w prefetches committed
system.cpu.commit.vec_insts                  12800079                       # Number of committed Vector instructions.
system.cpu.committedInsts                    58405612                       # Number of Instructions Simulated
system.cpu.committedOps                      58406656                       # Number of Ops (including micro ops) Simulated
system.cpu.cpi                               0.188906                       # CPI: Cycles Per Instruction
system.cpu.cpi_total                         0.188906                       # CPI: Total CPI of All Threads
system.cpu.decode.BlockedCycles               2503111                       # Number of cycles decode is blocked
system.cpu.decode.BranchMispred                   172                       # Number of times decode detected a branch misprediction
system.cpu.decode.BranchResolved               101010                       # Number of times decode resolved a branch
system.cpu.decode.DecodedInsts               58417082                       # Number of instructions handled by decode
system.cpu.decode.IdleCycles                  1208908                       # Number of cycles decode is idle
system.cpu.decode.RunCycles                   5203075                       # Number of cycles decode is running
system.cpu.decode.SquashCycles                    444                       # Number of cycles decode is squashing
system.cpu.decode.SquashedInsts                   665                       # Number of squashed instructions handled by decode
system.cpu.decode.UnblockCycles               2099877                       # Number of cycles decode is unblocking
system.cpu.dstage2_mmu.stage2_tlb.accesses            0                       # DTB accesses
system.cpu.dstage2_mmu.stage2_tlb.align_faults            0                       # Number of TLB faults due to alignment restrictions
system.cpu.dstage2_mmu.stage2_tlb.domain_faults            0                       # Number of TLB faults due to domain restrictions
system.cpu.dstage2_mmu.stage2_tlb.flush_entries            0                       # Number of entries that have been flushed from TLB
system.cpu.dstage2_mmu.stage2_tlb.flush_tlb            0                       # Number of times complete TLB was flushed
system.cpu.dstage2_mmu.stage2_tlb.flush_tlb_asid            0                       # Number of times TLB was flushed by ASID
system.cpu.dstage2_mmu.stage2_tlb.flush_tlb_mva            0                       # Number of times TLB was flushed by MVA
system.cpu.dstage2_mmu.stage2_tlb.flush_tlb_mva_asid            0                       # Number of times TLB was flushed by MVA & ASID
system.cpu.dstage2_mmu.stage2_tlb.hits              0                       # DTB hits
system.cpu.dstage2_mmu.stage2_tlb.inst_accesses            0                       # ITB inst accesses
system.cpu.dstage2_mmu.stage2_tlb.inst_hits            0                       # ITB inst hits
system.cpu.dstage2_mmu.stage2_tlb.inst_misses            0                       # ITB inst misses
system.cpu.dstage2_mmu.stage2_tlb.misses            0                       # DTB misses
system.cpu.dstage2_mmu.stage2_tlb.perms_faults            0                       # Number of TLB faults due to permissions restrictions
system.cpu.dstage2_mmu.stage2_tlb.prefetch_faults            0                       # Number of TLB faults due to prefetch
system.cpu.dstage2_mmu.stage2_tlb.read_accesses            0                       # DTB read accesses
system.cpu.dstage2_mmu.stage2_tlb.read_hits            0                       # DTB read hits
system.cpu.dstage2_mmu.stage2_tlb.read_misses            0                       # DTB read misses
system.cpu.dstage2_mmu.stage2_tlb.walker.walkRequestOrigin_Requested::Data            0                       # Table walker requests started/completed, data/inst
system.cpu.dstage2_mmu.stage2_tlb.walker.walkRequestOrigin_Requested::Inst            0                       # Table walker requests started/completed, data/inst
system.cpu.dstage2_mmu.stage2_tlb.walker.walkRequestOrigin_Requested::total            0                       # Table walker requests started/completed, data/inst
system.cpu.dstage2_mmu.stage2_tlb.walker.walkRequestOrigin_Completed::Data            0                       # Table walker requests started/completed, data/inst
system.cpu.dstage2_mmu.stage2_tlb.walker.walkRequestOrigin_Completed::Inst            0                       # Table walker requests started/completed, data/inst
system.cpu.dstage2_mmu.stage2_tlb.walker.walkRequestOrigin_Completed::total            0                       # Table walker requests started/completed, data/inst
system.cpu.dstage2_mmu.stage2_tlb.walker.walkRequestOrigin::total            0                       # Table walker requests started/completed, data/inst
system.cpu.dstage2_mmu.stage2_tlb.walker.walks            0                       # Table walker walks requested
system.cpu.dstage2_mmu.stage2_tlb.write_accesses            0                       # DTB write accesses
system.cpu.dstage2_mmu.stage2_tlb.write_hits            0                       # DTB write hits
system.cpu.dstage2_mmu.stage2_tlb.write_misses            0                       # DTB write misses
system.cpu.dtb.accesses                             0                       # DTB accesses
system.cpu.dtb.align_faults                         0                       # Number of TLB faults due to alignment restrictions
system.cpu.dtb.domain_faults                        0                       # Number of TLB faults due to domain restrictions
system.cpu.dtb.flush_entries                        0                       # Number of entries that have been flushed from TLB
system.cpu.dtb.flush_tlb                            0                       # Number of times complete TLB was flushed
system.cpu.dtb.flush_tlb_asid                       0                       # Number of times TLB was flushed by ASID
system.cpu.dtb.flush_tlb_mva                        0                       # Number of times TLB was flushed by MVA
system.cpu.dtb.flush_tlb_mva_asid                   0                       # Number of times TLB was flushed by MVA & ASID
system.cpu.dtb.hits                                 0                       # DTB hits
system.cpu.dtb.inst_accesses                        0                       # ITB inst accesses
system.cpu.dtb.inst_hits                            0                       # ITB inst hits
system.cpu.dtb.inst_misses                          0                       # ITB inst misses
system.cpu.dtb.misses                               0                       # DTB misses
system.cpu.dtb.perms_faults                         0                       # Number of TLB faults due to permissions restrictions
system.cpu.dtb.prefetch_faults                      0                       # Number of TLB faults due to prefetch
system.cpu.dtb.read_accesses                        0                       # DTB read accesses
system.cpu.dtb.read_hits                            0                       # DTB read hits
system.cpu.dtb.read_misses                          0                       # DTB read misses
system.cpu.dtb.walker.walkRequestOrigin_Requested::Data            0                       # Table walker requests started/completed, data/inst
system.cpu.dtb.walker.walkRequestOrigin_Requested::Inst            0                       # Table walker requests started/completed, data/inst
system.cpu.dtb.walker.walkRequestOrigin_Requested::total            0                       # Table walker requests started/completed, data/inst
system.cpu.dtb.walker.walkRequestOrigin_Completed::Data            0                       # Table walker requests started/completed, data/inst
system.cpu.dtb.walker.walkRequestOrigin_Completed::Inst            0                       # Table walker requests started/completed, data/inst
system.cpu.dtb.walker.walkRequestOrigin_Completed::total            0                       # Table walker requests started/completed, data/inst
system.cpu.dtb.walker.walkRequestOrigin::total            0                       # Table walker requests started/completed, data/inst
system.cpu.dtb.walker.walks                         0                       # Table walker walks requested
system.cpu.dtb.write_accesses                       0                       # DTB write accesses
system.cpu.dtb.write_hits                           0                       # DTB write hits
system.cpu.dtb.write_misses                         0                       # DTB write misses
system.cpu.fetch.Branches                      103555                       # Number of branches that fetch encountered
system.cpu.fetch.CacheLines                   3702638                       # Number of cache lines fetched
system.cpu.fetch.Cycles                       7305364                       # Number of cycles fetch has run and was not squashing or blocked
system.cpu.fetch.IcacheSquashes                   354                       # Number of outstanding Icache misses that were squashed
system.cpu.fetch.Insts                       58420089                       # Number of instructions fetch has processed
system.cpu.fetch.SquashCycles                    1230                       # Number of cycles fetch has spent squashing
system.cpu.fetch.branchRate                  0.009386                       # Number of branch fetches per cycle
system.cpu.fetch.icacheStallCycles            3709436                       # Number of cycles fetch is stalled on an Icache miss
system.cpu.fetch.predictedBranches             101193                       # Number of branches that fetch has predicted taken
system.cpu.fetch.rate                        5.294937                       # Number of inst fetches per cycle
system.cpu.fetch.rateDist::samples           11015415                       # Number of instructions fetched each cycle (Total)
system.cpu.fetch.rateDist::mean              5.303660                       # Number of instructions fetched each cycle (Total)
system.cpu.fetch.rateDist::stdev             3.781337                       # Number of instructions fetched each cycle (Total)
system.cpu.fetch.rateDist::underflows               0      0.00%      0.00% # Number of instructions fetched each cycle (Total)
system.cpu.fetch.rateDist::0                  3711766     33.70%     33.70% # Number of instructions fetched each cycle (Total)
system.cpu.fetch.rateDist::1                      270      0.00%     33.70% # Number of instructions fetched each cycle (Total)
system.cpu.fetch.rateDist::2                      266      0.00%     33.70% # Number of instructions fetched each cycle (Total)
system.cpu.fetch.rateDist::3                      200      0.00%     33.70% # Number of instructions fetched each cycle (Total)
system.cpu.fetch.rateDist::4                      234      0.00%     33.70% # Number of instructions fetched each cycle (Total)
system.cpu.fetch.rateDist::5                      309      0.00%     33.71% # Number of instructions fetched each cycle (Total)
system.cpu.fetch.rateDist::6                      334      0.00%     33.71% # Number of instructions fetched each cycle (Total)
system.cpu.fetch.rateDist::7                      160      0.00%     33.71% # Number of instructions fetched each cycle (Total)
system.cpu.fetch.rateDist::8                  7301876     66.29%    100.00% # Number of instructions fetched each cycle (Total)
system.cpu.fetch.rateDist::overflows                0      0.00%    100.00% # Number of instructions fetched each cycle (Total)
system.cpu.fetch.rateDist::min_value                0                       # Number of instructions fetched each cycle (Total)
system.cpu.fetch.rateDist::max_value                8                       # Number of instructions fetched each cycle (Total)
system.cpu.fetch.rateDist::total             11015415                       # Number of instructions fetched each cycle (Total)
system.cpu.idleCycles                           17783                       # Total number of cycles that the CPU has spent unscheduled due to idling
system.cpu.iew.branchMispredicts                  394                       # Number of branch mispredicts detected at execute
system.cpu.iew.exec_branches                   101937                       # Number of branches executed
system.cpu.iew.exec_nop                            37                       # number of nop insts executed
system.cpu.iew.exec_rate                     5.294201                       # Inst execution rate
system.cpu.iew.exec_refs                     22703310                       # number of memory reference insts executed
system.cpu.iew.exec_stores                   22501776                       # Number of stores executed
system.cpu.iew.exec_swp                             0                       # number of swp insts executed
system.cpu.iew.iewBlockCycles                     825                       # Number of cycles IEW is blocking
system.cpu.iew.iewDispLoadInsts                201594                       # Number of dispatched load instructions
system.cpu.iew.iewDispNonSpecInsts                 57                       # Number of dispatched non-speculative instructions
system.cpu.iew.iewDispSquashedInsts               110                       # Number of squashed instructions skipped by dispatch
system.cpu.iew.iewDispStoreInsts             22502467                       # Number of dispatched store instructions
system.cpu.iew.iewDispatchedInsts            58414191                       # Number of instructions dispatched to IQ
system.cpu.iew.iewExecLoadInsts                201534                       # Number of load instructions executed
system.cpu.iew.iewExecSquashedInsts               851                       # Number of squashed instructions skipped in execute
system.cpu.iew.iewExecutedInsts              58411963                       # Number of executed instructions
system.cpu.iew.iewIQFullEvents                      3                       # Number of times the IQ has become full, causing a stall
system.cpu.iew.iewIdleCycles                        0                       # Number of cycles IEW is idle
system.cpu.iew.iewLSQFullEvents                    34                       # Number of times the LSQ has become full, causing a stall
system.cpu.iew.iewSquashCycles                    444                       # Number of cycles IEW is squashing
system.cpu.iew.iewUnblockCycles                    38                       # Number of cycles IEW is unblocking
system.cpu.iew.lsq.thread0.blockedLoads             0                       # Number of blocked loads due to partial load-store forwarding
system.cpu.iew.lsq.thread0.cacheBlocked            43                       # Number of times an access to memory failed due to the cache being blocked
system.cpu.iew.lsq.thread0.forwLoads            99919                       # Number of loads that had data forwarded from stores
system.cpu.iew.lsq.thread0.ignoredResponses            0                       # Number of memory responses ignored because the instruction is squashed
system.cpu.iew.lsq.thread0.invAddrLoads             0                       # Number of loads ignored due to an invalid address
system.cpu.iew.lsq.thread0.invAddrSwpfs             0                       # Number of software prefetches ignored due to an invalid address
system.cpu.iew.lsq.thread0.memOrderViolation           98                       # Number of memory ordering violations
system.cpu.iew.lsq.thread0.rescheduledLoads           10                       # Number of loads that were rescheduled
system.cpu.iew.lsq.thread0.squashedLoads          797                       # Number of loads squashed
system.cpu.iew.lsq.thread0.squashedStores         1388                       # Number of stores squashed
system.cpu.iew.memOrderViolationEvents             98                       # Number of memory order violations
system.cpu.iew.predictedNotTakenIncorrect          341                       # Number of branches that were predicted not taken incorrectly
system.cpu.iew.predictedTakenIncorrect             53                       # Number of branches that were predicted taken incorrectly
system.cpu.iew.wb_consumers                  35809718                       # num instructions consuming a value
system.cpu.iew.wb_count                      58411415                       # cumulative count of insts written-back
system.cpu.iew.wb_fanout                     0.994310                       # average fanout of values written-back
system.cpu.iew.wb_producers                  35605951                       # num instructions producing a value
system.cpu.iew.wb_rate                       5.294151                       # insts written-back per cycle
system.cpu.iew.wb_sent                       58411638                       # cumulative count of insts sent to commit
system.cpu.int_regfile_reads                 52012034                       # number of integer regfile reads
system.cpu.int_regfile_writes                29408169                       # number of integer regfile writes
system.cpu.ipc                               5.293625                       # IPC: Instructions Per Cycle
system.cpu.ipc_total                         5.293625                       # IPC: Total IPC of All Threads
system.cpu.iq.FU_type_0::No_OpClass                16      0.00%      0.00% # Type of FU issued
system.cpu.iq.FU_type_0::IntAlu              29308891     50.18%     50.18% # Type of FU issued
system.cpu.iq.FU_type_0::IntMult                    3      0.00%     50.18% # Type of FU issued
system.cpu.iq.FU_type_0::IntDiv                     2      0.00%     50.18% # Type of FU issued
system.cpu.iq.FU_type_0::FloatAdd                   0      0.00%     50.18% # Type of FU issued
system.cpu.iq.FU_type_0::FloatCmp                   0      0.00%     50.18% # Type of FU issued
system.cpu.iq.FU_type_0::FloatCvt                   0      0.00%     50.18% # Type of FU issued
system.cpu.iq.FU_type_0::FloatMult                  0      0.00%     50.18% # Type of FU issued
system.cpu.iq.FU_type_0::FloatMultAcc               0      0.00%     50.18% # Type of FU issued
system.cpu.iq.FU_type_0::FloatDiv                   0      0.00%     50.18% # Type of FU issued
system.cpu.iq.FU_type_0::FloatMisc            6400184     10.96%     61.13% # Type of FU issued
system.cpu.iq.FU_type_0::FloatSqrt                  0      0.00%     61.13% # Type of FU issued
system.cpu.iq.FU_type_0::SimdAdd                    5      0.00%     61.13% # Type of FU issued
system.cpu.iq.FU_type_0::SimdAddAcc                 0      0.00%     61.13% # Type of FU issued
system.cpu.iq.FU_type_0::SimdAlu                    4      0.00%     61.13% # Type of FU issued
system.cpu.iq.FU_type_0::SimdCmp                    4      0.00%     61.13% # Type of FU issued
system.cpu.iq.FU_type_0::SimdCvt                    0      0.00%     61.13% # Type of FU issued
system.cpu.iq.FU_type_0::SimdMisc                   9      0.00%     61.13% # Type of FU issued
system.cpu.iq.FU_type_0::SimdMult                   0      0.00%     61.13% # Type of FU issued
system.cpu.iq.FU_type_0::SimdMultAcc                0      0.00%     61.13% # Type of FU issued
system.cpu.iq.FU_type_0::SimdShift                  0      0.00%     61.13% # Type of FU issued
system.cpu.iq.FU_type_0::SimdShiftAcc               0      0.00%     61.13% # Type of FU issued
system.cpu.iq.FU_type_0::SimdDiv                    0      0.00%     61.13% # Type of FU issued
system.cpu.iq.FU_type_0::SimdSqrt                   0      0.00%     61.13% # Type of FU issued
system.cpu.iq.FU_type_0::SimdFloatAdd               0      0.00%     61.13% # Type of FU issued
system.cpu.iq.FU_type_0::SimdFloatAlu               0      0.00%     61.13% # Type of FU issued
system.cpu.iq.FU_type_0::SimdFloatCmp               0      0.00%     61.13% # Type of FU issued
system.cpu.iq.FU_type_0::SimdFloatCvt               0      0.00%     61.13% # Type of FU issued
system.cpu.iq.FU_type_0::SimdFloatDiv               0      0.00%     61.13% # Type of FU issued
system.cpu.iq.FU_type_0::SimdFloatMisc              0      0.00%     61.13% # Type of FU issued
system.cpu.iq.FU_type_0::SimdFloatMult              0      0.00%     61.13% # Type of FU issued
system.cpu.iq.FU_type_0::SimdFloatMultAcc            0      0.00%     61.13% # Type of FU issued
system.cpu.iq.FU_type_0::SimdFloatSqrt              0      0.00%     61.13% # Type of FU issued
system.cpu.iq.FU_type_0::SimdReduceAdd              0      0.00%     61.13% # Type of FU issued
system.cpu.iq.FU_type_0::SimdReduceAlu              0      0.00%     61.13% # Type of FU issued
system.cpu.iq.FU_type_0::SimdReduceCmp              0      0.00%     61.13% # Type of FU issued
system.cpu.iq.FU_type_0::SimdFloatReduceAdd            0      0.00%     61.13% # Type of FU issued
system.cpu.iq.FU_type_0::SimdFloatReduceCmp            0      0.00%     61.13% # Type of FU issued
system.cpu.iq.FU_type_0::SimdAes                    0      0.00%     61.13% # Type of FU issued
system.cpu.iq.FU_type_0::SimdAesMix                 0      0.00%     61.13% # Type of FU issued
system.cpu.iq.FU_type_0::SimdSha1Hash               0      0.00%     61.13% # Type of FU issued
system.cpu.iq.FU_type_0::SimdSha1Hash2              0      0.00%     61.13% # Type of FU issued
system.cpu.iq.FU_type_0::SimdSha256Hash             0      0.00%     61.13% # Type of FU issued
system.cpu.iq.FU_type_0::SimdSha256Hash2            0      0.00%     61.13% # Type of FU issued
system.cpu.iq.FU_type_0::SimdShaSigma2              0      0.00%     61.13% # Type of FU issued
system.cpu.iq.FU_type_0::SimdShaSigma3              0      0.00%     61.13% # Type of FU issued
system.cpu.iq.FU_type_0::SimdPredAlu                0      0.00%     61.13% # Type of FU issued
system.cpu.iq.FU_type_0::MemRead               201620      0.35%     61.48% # Type of FU issued
system.cpu.iq.FU_type_0::MemWrite            22502076     38.52%    100.00% # Type of FU issued
system.cpu.iq.FU_type_0::FloatMemRead               0      0.00%    100.00% # Type of FU issued
system.cpu.iq.FU_type_0::FloatMemWrite              0      0.00%    100.00% # Type of FU issued
system.cpu.iq.FU_type_0::IprAccess                  0      0.00%    100.00% # Type of FU issued
system.cpu.iq.FU_type_0::InstPrefetch               0      0.00%    100.00% # Type of FU issued
system.cpu.iq.FU_type_0::total               58412814                       # Type of FU issued
system.cpu.iq.fp_alu_accesses                       0                       # Number of floating point alu accesses
system.cpu.iq.fp_inst_queue_reads                   0                       # Number of floating instruction queue reads
system.cpu.iq.fp_inst_queue_wakeup_accesses            0                       # Number of floating instruction queue wakeup accesses
system.cpu.iq.fp_inst_queue_writes                  0                       # Number of floating instruction queue writes
system.cpu.iq.fu_busy_cnt                      699847                       # FU busy when requested
system.cpu.iq.fu_busy_rate                   0.011981                       # FU busy rate (busy events/executed inst)
system.cpu.iq.fu_full::No_OpClass                   0      0.00%      0.00% # attempts to use FU when none available
system.cpu.iq.fu_full::IntAlu                      61      0.01%      0.01% # attempts to use FU when none available
system.cpu.iq.fu_full::IntMult                      0      0.00%      0.01% # attempts to use FU when none available
system.cpu.iq.fu_full::IntDiv                       0      0.00%      0.01% # attempts to use FU when none available
system.cpu.iq.fu_full::FloatAdd                     0      0.00%      0.01% # attempts to use FU when none available
system.cpu.iq.fu_full::FloatCmp                     0      0.00%      0.01% # attempts to use FU when none available
system.cpu.iq.fu_full::FloatCvt                     0      0.00%      0.01% # attempts to use FU when none available
system.cpu.iq.fu_full::FloatMult                    0      0.00%      0.01% # attempts to use FU when none available
system.cpu.iq.fu_full::FloatMultAcc                 0      0.00%      0.01% # attempts to use FU when none available
system.cpu.iq.fu_full::FloatDiv                     0      0.00%      0.01% # attempts to use FU when none available
system.cpu.iq.fu_full::FloatMisc                    0      0.00%      0.01% # attempts to use FU when none available
system.cpu.iq.fu_full::FloatSqrt                    0      0.00%      0.01% # attempts to use FU when none available
system.cpu.iq.fu_full::SimdAdd                      0      0.00%      0.01% # attempts to use FU when none available
system.cpu.iq.fu_full::SimdAddAcc                   0      0.00%      0.01% # attempts to use FU when none available
system.cpu.iq.fu_full::SimdAlu                      0      0.00%      0.01% # attempts to use FU when none available
system.cpu.iq.fu_full::SimdCmp                      0      0.00%      0.01% # attempts to use FU when none available
system.cpu.iq.fu_full::SimdCvt                      0      0.00%      0.01% # attempts to use FU when none available
system.cpu.iq.fu_full::SimdMisc                     0      0.00%      0.01% # attempts to use FU when none available
system.cpu.iq.fu_full::SimdMult                     0      0.00%      0.01% # attempts to use FU when none available
system.cpu.iq.fu_full::SimdMultAcc                  0      0.00%      0.01% # attempts to use FU when none available
system.cpu.iq.fu_full::SimdShift                    0      0.00%      0.01% # attempts to use FU when none available
system.cpu.iq.fu_full::SimdShiftAcc                 0      0.00%      0.01% # attempts to use FU when none available
system.cpu.iq.fu_full::SimdDiv                      0      0.00%      0.01% # attempts to use FU when none available
system.cpu.iq.fu_full::SimdSqrt                     0      0.00%      0.01% # attempts to use FU when none available
system.cpu.iq.fu_full::SimdFloatAdd                 0      0.00%      0.01% # attempts to use FU when none available
system.cpu.iq.fu_full::SimdFloatAlu                 0      0.00%      0.01% # attempts to use FU when none available
system.cpu.iq.fu_full::SimdFloatCmp                 0      0.00%      0.01% # attempts to use FU when none available
system.cpu.iq.fu_full::SimdFloatCvt                 0      0.00%      0.01% # attempts to use FU when none available
system.cpu.iq.fu_full::SimdFloatDiv                 0      0.00%      0.01% # attempts to use FU when none available
system.cpu.iq.fu_full::SimdFloatMisc                0      0.00%      0.01% # attempts to use FU when none available
system.cpu.iq.fu_full::SimdFloatMult                0      0.00%      0.01% # attempts to use FU when none available
system.cpu.iq.fu_full::SimdFloatMultAcc             0      0.00%      0.01% # attempts to use FU when none available
system.cpu.iq.fu_full::SimdFloatSqrt                0      0.00%      0.01% # attempts to use FU when none available
system.cpu.iq.fu_full::SimdReduceAdd                0      0.00%      0.01% # attempts to use FU when none available
system.cpu.iq.fu_full::SimdReduceAlu                0      0.00%      0.01% # attempts to use FU when none available
system.cpu.iq.fu_full::SimdReduceCmp                0      0.00%      0.01% # attempts to use FU when none available
system.cpu.iq.fu_full::SimdFloatReduceAdd            0      0.00%      0.01% # attempts to use FU when none available
system.cpu.iq.fu_full::SimdFloatReduceCmp            0      0.00%      0.01% # attempts to use FU when none available
system.cpu.iq.fu_full::SimdAes                      0      0.00%      0.01% # attempts to use FU when none available
system.cpu.iq.fu_full::SimdAesMix                   0      0.00%      0.01% # attempts to use FU when none available
system.cpu.iq.fu_full::SimdSha1Hash                 0      0.00%      0.01% # attempts to use FU when none available
system.cpu.iq.fu_full::SimdSha1Hash2                0      0.00%      0.01% # attempts to use FU when none available
system.cpu.iq.fu_full::SimdSha256Hash               0      0.00%      0.01% # attempts to use FU when none available
system.cpu.iq.fu_full::SimdSha256Hash2              0      0.00%      0.01% # attempts to use FU when none available
system.cpu.iq.fu_full::SimdShaSigma2                0      0.00%      0.01% # attempts to use FU when none available
system.cpu.iq.fu_full::SimdShaSigma3                0      0.00%      0.01% # attempts to use FU when none available
system.cpu.iq.fu_full::SimdPredAlu                  0      0.00%      0.01% # attempts to use FU when none available
system.cpu.iq.fu_full::MemRead                     34      0.00%      0.01% # attempts to use FU when none available
system.cpu.iq.fu_full::MemWrite                699752     99.99%    100.00% # attempts to use FU when none available
system.cpu.iq.fu_full::FloatMemRead                 0      0.00%    100.00% # attempts to use FU when none available
system.cpu.iq.fu_full::FloatMemWrite                0      0.00%    100.00% # attempts to use FU when none available
system.cpu.iq.fu_full::IprAccess                    0      0.00%    100.00% # attempts to use FU when none available
system.cpu.iq.fu_full::InstPrefetch                 0      0.00%    100.00% # attempts to use FU when none available
system.cpu.iq.int_alu_accesses               46312351                       # Number of integer alu accesses
system.cpu.iq.int_inst_queue_reads          102940357                       # Number of integer instruction queue reads
system.cpu.iq.int_inst_queue_wakeup_accesses     45611320                       # Number of integer instruction queue wakeup accesses
system.cpu.iq.int_inst_queue_writes          45620854                       # Number of integer instruction queue writes
system.cpu.iq.iqInstsAdded                   58414097                       # Number of instructions added to the IQ (excludes non-spec)
system.cpu.iq.iqInstsIssued                  58412814                       # Number of instructions issued
system.cpu.iq.iqNonSpecInstsAdded                  57                       # Number of non-speculative instructions added to the IQ
system.cpu.iq.iqSquashedInstsExamined            7497                       # Number of squashed instructions iterated over during squash; mainly for profiling
system.cpu.iq.iqSquashedInstsIssued                63                       # Number of squashed instructions issued
system.cpu.iq.iqSquashedNonSpecRemoved             19                       # Number of squashed non-spec instructions that were removed
system.cpu.iq.iqSquashedOperandsExamined         4097                       # Number of squashed operands that are examined and possibly removed from graph
system.cpu.iq.issued_per_cycle::samples      11015415                       # Number of insts issued each cycle
system.cpu.iq.issued_per_cycle::mean         5.302825                       # Number of insts issued each cycle
system.cpu.iq.issued_per_cycle::stdev        1.884072                       # Number of insts issued each cycle
system.cpu.iq.issued_per_cycle::underflows            0      0.00%      0.00% # Number of insts issued each cycle
system.cpu.iq.issued_per_cycle::0              111136      1.01%      1.01% # Number of insts issued each cycle
system.cpu.iq.issued_per_cycle::1              301130      2.73%      3.74% # Number of insts issued each cycle
system.cpu.iq.issued_per_cycle::2              300912      2.73%      6.47% # Number of insts issued each cycle
system.cpu.iq.issued_per_cycle::3             1400658     12.72%     19.19% # Number of insts issued each cycle
system.cpu.iq.issued_per_cycle::4             1700987     15.44%     34.63% # Number of insts issued each cycle
system.cpu.iq.issued_per_cycle::5             1300472     11.81%     46.44% # Number of insts issued each cycle
system.cpu.iq.issued_per_cycle::6             2699695     24.51%     70.95% # Number of insts issued each cycle
system.cpu.iq.issued_per_cycle::7             1799992     16.34%     87.29% # Number of insts issued each cycle
system.cpu.iq.issued_per_cycle::8             1400433     12.71%    100.00% # Number of insts issued each cycle
system.cpu.iq.issued_per_cycle::overflows            0      0.00%    100.00% # Number of insts issued each cycle
system.cpu.iq.issued_per_cycle::min_value            0                       # Number of insts issued each cycle
system.cpu.iq.issued_per_cycle::max_value            8                       # Number of insts issued each cycle
system.cpu.iq.issued_per_cycle::total        11015415                       # Number of insts issued each cycle
system.cpu.iq.rate                           5.294278                       # Inst issue rate
system.cpu.iq.vec_alu_accesses               12800294                       # Number of vector alu accesses
system.cpu.iq.vec_inst_queue_reads           25600596                       # Number of vector instruction queue reads
system.cpu.iq.vec_inst_queue_wakeup_accesses     12800095                       # Number of vector instruction queue wakeup accesses
system.cpu.iq.vec_inst_queue_writes          12800895                       # Number of vector instruction queue writes
system.cpu.istage2_mmu.stage2_tlb.accesses            0                       # DTB accesses
system.cpu.istage2_mmu.stage2_tlb.align_faults            0                       # Number of TLB faults due to alignment restrictions
system.cpu.istage2_mmu.stage2_tlb.domain_faults            0                       # Number of TLB faults due to domain restrictions
system.cpu.istage2_mmu.stage2_tlb.flush_entries            0                       # Number of entries that have been flushed from TLB
system.cpu.istage2_mmu.stage2_tlb.flush_tlb            0                       # Number of times complete TLB was flushed
system.cpu.istage2_mmu.stage2_tlb.flush_tlb_asid            0                       # Number of times TLB was flushed by ASID
system.cpu.istage2_mmu.stage2_tlb.flush_tlb_mva            0                       # Number of times TLB was flushed by MVA
system.cpu.istage2_mmu.stage2_tlb.flush_tlb_mva_asid            0                       # Number of times TLB was flushed by MVA & ASID
system.cpu.istage2_mmu.stage2_tlb.hits              0                       # DTB hits
system.cpu.istage2_mmu.stage2_tlb.inst_accesses            0                       # ITB inst accesses
system.cpu.istage2_mmu.stage2_tlb.inst_hits            0                       # ITB inst hits
system.cpu.istage2_mmu.stage2_tlb.inst_misses            0                       # ITB inst misses
system.cpu.istage2_mmu.stage2_tlb.misses            0                       # DTB misses
system.cpu.istage2_mmu.stage2_tlb.perms_faults            0                       # Number of TLB faults due to permissions restrictions
system.cpu.istage2_mmu.stage2_tlb.prefetch_faults            0                       # Number of TLB faults due to prefetch
system.cpu.istage2_mmu.stage2_tlb.read_accesses            0                       # DTB read accesses
system.cpu.istage2_mmu.stage2_tlb.read_hits            0                       # DTB read hits
system.cpu.istage2_mmu.stage2_tlb.read_misses            0                       # DTB read misses
system.cpu.istage2_mmu.stage2_tlb.walker.walkRequestOrigin_Requested::Data            0                       # Table walker requests started/completed, data/inst
system.cpu.istage2_mmu.stage2_tlb.walker.walkRequestOrigin_Requested::Inst            0                       # Table walker requests started/completed, data/inst
system.cpu.istage2_mmu.stage2_tlb.walker.walkRequestOrigin_Requested::total            0                       # Table walker requests started/completed, data/inst
system.cpu.istage2_mmu.stage2_tlb.walker.walkRequestOrigin_Completed::Data            0                       # Table walker requests started/completed, data/inst
system.cpu.istage2_mmu.stage2_tlb.walker.walkRequestOrigin_Completed::Inst            0                       # Table walker requests started/completed, data/inst
system.cpu.istage2_mmu.stage2_tlb.walker.walkRequestOrigin_Completed::total            0                       # Table walker requests started/completed, data/inst
system.cpu.istage2_mmu.stage2_tlb.walker.walkRequestOrigin::total            0                       # Table walker requests started/completed, data/inst
system.cpu.istage2_mmu.stage2_tlb.walker.walks            0                       # Table walker walks requested
system.cpu.istage2_mmu.stage2_tlb.write_accesses            0                       # DTB write accesses
system.cpu.istage2_mmu.stage2_tlb.write_hits            0                       # DTB write hits
system.cpu.istage2_mmu.stage2_tlb.write_misses            0                       # DTB write misses
system.cpu.itb.accesses                             0                       # DTB accesses
system.cpu.itb.align_faults                         0                       # Number of TLB faults due to alignment restrictions
system.cpu.itb.domain_faults                        0                       # Number of TLB faults due to domain restrictions
system.cpu.itb.flush_entries                        0                       # Number of entries that have been flushed from TLB
system.cpu.itb.flush_tlb                            0                       # Number of times complete TLB was flushed
system.cpu.itb.flush_tlb_asid                       0                       # Number of times TLB was flushed by ASID
system.cpu.itb.flush_tlb_mva                        0                       # Number of times TLB was flushed by MVA
system.cpu.itb.flush_tlb_mva_asid                   0                       # Number of times TLB was flushed by MVA & ASID
system.cpu.itb.hits                                 0                       # DTB hits
system.cpu.itb.inst_accesses                        0                       # ITB inst accesses
system.cpu.itb.inst_hits                            0                       # ITB inst hits
system.cpu.itb.inst_misses                          0                       # ITB inst misses
system.cpu.itb.misses                               0                       # DTB misses
system.cpu.itb.perms_faults                         0                       # Number of TLB faults due to permissions restrictions
system.cpu.itb.prefetch_faults                      0                       # Number of TLB faults due to prefetch
system.cpu.itb.read_accesses                        0                       # DTB read accesses
system.cpu.itb.read_hits                            0                       # DTB read hits
system.cpu.itb.read_misses                          0                       # DTB read misses
system.cpu.itb.walker.walkRequestOrigin_Requested::Data            0                       # Table walker requests started/completed, data/inst
system.cpu.itb.walker.walkRequestOrigin_Requested::Inst            0                       # Table walker requests started/completed, data/inst
system.cpu.itb.walker.walkRequestOrigin_Requested::total            0                       # Table walker requests started/completed, data/inst
system.cpu.itb.walker.walkRequestOrigin_Completed::Data            0                       # Table walker requests started/completed, data/inst
system.cpu.itb.walker.walkRequestOrigin_Completed::Inst            0                       # Table walker requests started/completed, data/inst
system.cpu.itb.walker.walkRequestOrigin_Completed::total            0                       # Table walker requests started/completed, data/inst
system.cpu.itb.walker.walkRequestOrigin::total            0                       # Table walker requests started/completed, data/inst
system.cpu.itb.walker.walks                         0                       # Table walker walks requested
system.cpu.itb.write_accesses                       0                       # DTB write accesses
system.cpu.itb.write_hits                           0                       # DTB write hits
system.cpu.itb.write_misses                         0                       # DTB write misses
system.cpu.memDep0.conflictingLoads             99910                       # Number of conflicting loads.
system.cpu.memDep0.conflictingStores             1109                       # Number of conflicting stores.
system.cpu.memDep0.insertedLoads               201594                       # Number of loads inserted to the mem dependence unit.
system.cpu.memDep0.insertedStores            22502467                       # Number of stores inserted to the mem dependence unit.
system.cpu.misc_regfile_reads                84009593                       # number of misc regfile reads
system.cpu.misc_regfile_writes                     37                       # number of misc regfile writes
system.cpu.numCycles                         11033198                       # number of cpu cycles simulated
system.cpu.numWorkItemsCompleted                    0                       # number of work items this cpu completed
system.cpu.numWorkItemsStarted                      0                       # number of work items this cpu started
system.cpu.rename.BlockCycles                     869                       # Number of cycles rename is blocking
system.cpu.rename.CommittedMaps              36106460                       # Number of HB maps that are committed
system.cpu.rename.IQFullEvents                      8                       # Number of times rename has blocked due to IQ full
system.cpu.rename.IdleCycles                  2108962                       # Number of cycles rename is idle
system.cpu.rename.RenameLookups              84321755                       # Number of register rename lookups that rename has made
system.cpu.rename.RenamedInsts               58415471                       # Number of instructions processed by rename
system.cpu.rename.RenamedOperands            36114408                       # Number of destination operands rename has renamed
system.cpu.rename.RunCycles                   6402891                       # Number of cycles rename is running
system.cpu.rename.SQFullEvents                1700460                       # Number of times rename has blocked due to SQ full
system.cpu.rename.SquashCycles                    444                       # Number of cycles rename is squashing
system.cpu.rename.UnblockCycles               2500318                       # Number of cycles rename is unblocking
system.cpu.rename.UndoneMaps                     7948                       # Number of HB maps that are undone due to squashing
system.cpu.rename.int_rename_lookups         52015997                       # Number of integer rename lookups
system.cpu.rename.serializeStallCycles           1931                       # count of cycles rename stalled for serializing inst
system.cpu.rename.serializingInsts                 67                       # count of serializing insts renamed
system.cpu.rename.skidInsts                   9598489                       # count of insts added to the skid buffer
system.cpu.rename.tempSerializingInsts             25                       # count of temporary serializing insts renamed
system.cpu.rename.vec_rename_lookups          6400309                       # Number of vector rename lookups
system.cpu.rob.rob_reads                     64227873                       # The number of ROB reads
system.cpu.rob.rob_writes                   116829584                       # The number of ROB writes
system.cpu.timesIdled                             266                       # Number of times that the entire CPU went into an idle state and unscheduled itself
system.cpu.vec_regfile_reads                  6400099                       # number of vector regfile reads
system.cpu.vec_regfile_writes                 6400024                       # number of vector regfile writes
system.cpu.workload.numSyscalls                     8                       # Number of system calls
system.l2bus.snoop_filter.hit_multi_requests            0                       # Number of requests hitting in the snoop filter with multiple (>1) holders of the requested data.
system.l2bus.snoop_filter.hit_multi_snoops            0                       # Number of snoops hitting in the snoop filter with multiple (>1) holders of the requested data.
system.l2bus.snoop_filter.hit_single_requests          146                       # Number of requests hitting in the snoop filter with a single holder of the requested data.
system.l2bus.snoop_filter.hit_single_snoops            0                       # Number of snoops hitting in the snoop filter with a single holder of the requested data.
system.l2bus.snoop_filter.tot_requests            698                       # Total number of requests made to the snoop filter.
system.l2bus.snoop_filter.tot_snoops                0                       # Total number of snoops made to the snoop filter.
system.membus.snoop_filter.hit_multi_requests            0                       # Number of requests hitting in the snoop filter with multiple (>1) holders of the requested data.
system.membus.snoop_filter.hit_multi_snoops            0                       # Number of snoops hitting in the snoop filter with multiple (>1) holders of the requested data.
system.membus.snoop_filter.hit_single_requests            0                       # Number of requests hitting in the snoop filter with a single holder of the requested data.
system.membus.snoop_filter.hit_single_snoops            0                       # Number of snoops hitting in the snoop filter with a single holder of the requested data.
system.membus.snoop_filter.tot_requests           535                       # Total number of requests made to the snoop filter.
system.membus.snoop_filter.tot_snoops               0                       # Total number of snoops made to the snoop filter.
system.membus.pwrStateResidencyTicks::UNDEFINED  11033197000                       # Cumulative time (in ticks) in various power states
system.membus.trans_dist::ReadResp                442                       # Transaction distribution
system.membus.trans_dist::ReadExReq                85                       # Transaction distribution
system.membus.trans_dist::ReadExResp               85                       # Transaction distribution
system.membus.trans_dist::ReadSharedReq           443                       # Transaction distribution
system.membus.trans_dist::InvalidateReq             7                       # Transaction distribution
system.membus.pkt_count_system.l2cache.mem_side::system.mem_ctrl.port         1062                       # Packet count per connected master and slave (bytes)
system.membus.pkt_count::total                   1062                       # Packet count per connected master and slave (bytes)
system.membus.pkt_size_system.l2cache.mem_side::system.mem_ctrl.port        33728                       # Cumulative packet size per connected master and slave (bytes)
system.membus.pkt_size::total                   33728                       # Cumulative packet size per connected master and slave (bytes)
system.membus.snoops                                0                       # Total snoops (count)
system.membus.snoopTraffic                          0                       # Total snoop traffic (bytes)
system.membus.snoop_fanout::samples               535                       # Request fanout histogram
system.membus.snoop_fanout::mean                    0                       # Request fanout histogram
system.membus.snoop_fanout::stdev                   0                       # Request fanout histogram
system.membus.snoop_fanout::underflows              0      0.00%      0.00% # Request fanout histogram
system.membus.snoop_fanout::0                     535    100.00%    100.00% # Request fanout histogram
system.membus.snoop_fanout::1                       0      0.00%    100.00% # Request fanout histogram
system.membus.snoop_fanout::overflows               0      0.00%    100.00% # Request fanout histogram
system.membus.snoop_fanout::min_value               0                       # Request fanout histogram
system.membus.snoop_fanout::max_value               0                       # Request fanout histogram
system.membus.snoop_fanout::total                 535                       # Request fanout histogram
system.membus.reqLayer0.occupancy              535000                       # Layer occupancy (ticks)
system.membus.reqLayer0.utilization               0.0                       # Layer utilization (%)
system.membus.respLayer0.occupancy            2786000                       # Layer occupancy (ticks)
system.membus.respLayer0.utilization              0.0                       # Layer utilization (%)
system.l2bus.pwrStateResidencyTicks::UNDEFINED  11033197000                       # Cumulative time (in ticks) in various power states
system.l2bus.trans_dist::ReadResp                 460                       # Transaction distribution
system.l2bus.trans_dist::CleanEvict               144                       # Transaction distribution
system.l2bus.trans_dist::ReadExReq                 85                       # Transaction distribution
system.l2bus.trans_dist::ReadExResp                85                       # Transaction distribution
system.l2bus.trans_dist::ReadSharedReq            462                       # Transaction distribution
system.l2bus.trans_dist::InvalidateReq              7                       # Transaction distribution
system.l2bus.trans_dist::InvalidateResp             7                       # Transaction distribution
system.l2bus.pkt_count_system.cpu.icache.mem_side::system.l2cache.cpu_side          880                       # Packet count per connected master and slave (bytes)
system.l2bus.pkt_count_system.cpu.dcache.mem_side::system.l2cache.cpu_side          370                       # Packet count per connected master and slave (bytes)
system.l2bus.pkt_count::total                    1250                       # Packet count per connected master and slave (bytes)
system.l2bus.pkt_size_system.cpu.icache.mem_side::system.l2cache.cpu_side        23488                       # Cumulative packet size per connected master and slave (bytes)
system.l2bus.pkt_size_system.cpu.dcache.mem_side::system.l2cache.cpu_side        11392                       # Cumulative packet size per connected master and slave (bytes)
system.l2bus.pkt_size::total                    34880                       # Cumulative packet size per connected master and slave (bytes)
system.l2bus.snoops                                 0                       # Total snoops (count)
system.l2bus.snoopTraffic                           0                       # Total snoop traffic (bytes)
system.l2bus.snoop_fanout::samples                554                       # Request fanout histogram
system.l2bus.snoop_fanout::mean              0.003610                       # Request fanout histogram
system.l2bus.snoop_fanout::stdev             0.060030                       # Request fanout histogram
system.l2bus.snoop_fanout::underflows               0      0.00%      0.00% # Request fanout histogram
system.l2bus.snoop_fanout::0                      552     99.64%     99.64% # Request fanout histogram
system.l2bus.snoop_fanout::1                        2      0.36%    100.00% # Request fanout histogram
system.l2bus.snoop_fanout::2                        0      0.00%    100.00% # Request fanout histogram
system.l2bus.snoop_fanout::overflows                0      0.00%    100.00% # Request fanout histogram
system.l2bus.snoop_fanout::min_value                0                       # Request fanout histogram
system.l2bus.snoop_fanout::max_value                1                       # Request fanout histogram
system.l2bus.snoop_fanout::total                  554                       # Request fanout histogram
system.l2bus.respLayer1.occupancy              541000                       # Layer occupancy (ticks)
system.l2bus.respLayer1.utilization               0.0                       # Layer utilization (%)
system.l2bus.reqLayer0.occupancy               698000                       # Layer occupancy (ticks)
system.l2bus.reqLayer0.utilization                0.0                       # Layer utilization (%)
system.l2bus.respLayer0.occupancy             1101000                       # Layer occupancy (ticks)
system.l2bus.respLayer0.utilization               0.0                       # Layer utilization (%)
system.clk_domain.clock                          1000                       # Clock period in ticks
system.clk_domain.voltage_domain.voltage            1                       # Voltage in Volts
system.cpu.pwrStateResidencyTicks::ON     11033197000                       # Cumulative time (in ticks) in various power states
system.cpu.icache.pwrStateResidencyTicks::UNDEFINED  11033197000                       # Cumulative time (in ticks) in various power states
system.cpu.icache.demand_hits::.cpu.inst      3702140                       # number of demand (read+write) hits
system.cpu.icache.demand_hits::total          3702140                       # number of demand (read+write) hits
system.cpu.icache.overall_hits::.cpu.inst      3702140                       # number of overall hits
system.cpu.icache.overall_hits::total         3702140                       # number of overall hits
system.cpu.icache.demand_misses::.cpu.inst          498                       # number of demand (read+write) misses
system.cpu.icache.demand_misses::total            498                       # number of demand (read+write) misses
system.cpu.icache.overall_misses::.cpu.inst          498                       # number of overall misses
system.cpu.icache.overall_misses::total           498                       # number of overall misses
system.cpu.icache.demand_miss_latency::.cpu.inst     46183000                       # number of demand (read+write) miss cycles
system.cpu.icache.demand_miss_latency::total     46183000                       # number of demand (read+write) miss cycles
system.cpu.icache.overall_miss_latency::.cpu.inst     46183000                       # number of overall miss cycles
system.cpu.icache.overall_miss_latency::total     46183000                       # number of overall miss cycles
system.cpu.icache.demand_accesses::.cpu.inst      3702638                       # number of demand (read+write) accesses
system.cpu.icache.demand_accesses::total      3702638                       # number of demand (read+write) accesses
system.cpu.icache.overall_accesses::.cpu.inst      3702638                       # number of overall (read+write) accesses
system.cpu.icache.overall_accesses::total      3702638                       # number of overall (read+write) accesses
system.cpu.icache.demand_miss_rate::.cpu.inst     0.000134                       # miss rate for demand accesses
system.cpu.icache.demand_miss_rate::total     0.000134                       # miss rate for demand accesses
system.cpu.icache.overall_miss_rate::.cpu.inst     0.000134                       # miss rate for overall accesses
system.cpu.icache.overall_miss_rate::total     0.000134                       # miss rate for overall accesses
system.cpu.icache.demand_avg_miss_latency::.cpu.inst 92736.947791                       # average overall miss latency
system.cpu.icache.demand_avg_miss_latency::total 92736.947791                       # average overall miss latency
system.cpu.icache.overall_avg_miss_latency::.cpu.inst 92736.947791                       # average overall miss latency
system.cpu.icache.overall_avg_miss_latency::total 92736.947791                       # average overall miss latency
system.cpu.icache.blocked_cycles::no_mshrs           19                       # number of cycles access was blocked
system.cpu.icache.blocked_cycles::no_targets            0                       # number of cycles access was blocked
system.cpu.icache.blocked::no_mshrs                 1                       # number of cycles access was blocked
system.cpu.icache.blocked::no_targets               0                       # number of cycles access was blocked
system.cpu.icache.avg_blocked_cycles::no_mshrs           19                       # average number of cycles each access was blocked
system.cpu.icache.avg_blocked_cycles::no_targets          nan                       # average number of cycles each access was blocked
system.cpu.icache.demand_mshr_hits::.cpu.inst          129                       # number of demand (read+write) MSHR hits
system.cpu.icache.demand_mshr_hits::total          129                       # number of demand (read+write) MSHR hits
system.cpu.icache.overall_mshr_hits::.cpu.inst          129                       # number of overall MSHR hits
system.cpu.icache.overall_mshr_hits::total          129                       # number of overall MSHR hits
system.cpu.icache.demand_mshr_misses::.cpu.inst          369                       # number of demand (read+write) MSHR misses
system.cpu.icache.demand_mshr_misses::total          369                       # number of demand (read+write) MSHR misses
system.cpu.icache.overall_mshr_misses::.cpu.inst          369                       # number of overall MSHR misses
system.cpu.icache.overall_mshr_misses::total          369                       # number of overall MSHR misses
system.cpu.icache.demand_mshr_miss_latency::.cpu.inst     36232000                       # number of demand (read+write) MSHR miss cycles
system.cpu.icache.demand_mshr_miss_latency::total     36232000                       # number of demand (read+write) MSHR miss cycles
system.cpu.icache.overall_mshr_miss_latency::.cpu.inst     36232000                       # number of overall MSHR miss cycles
system.cpu.icache.overall_mshr_miss_latency::total     36232000                       # number of overall MSHR miss cycles
system.cpu.icache.demand_mshr_miss_rate::.cpu.inst     0.000100                       # mshr miss rate for demand accesses
system.cpu.icache.demand_mshr_miss_rate::total     0.000100                       # mshr miss rate for demand accesses
system.cpu.icache.overall_mshr_miss_rate::.cpu.inst     0.000100                       # mshr miss rate for overall accesses
system.cpu.icache.overall_mshr_miss_rate::total     0.000100                       # mshr miss rate for overall accesses
system.cpu.icache.demand_avg_mshr_miss_latency::.cpu.inst 98189.701897                       # average overall mshr miss latency
system.cpu.icache.demand_avg_mshr_miss_latency::total 98189.701897                       # average overall mshr miss latency
system.cpu.icache.overall_avg_mshr_miss_latency::.cpu.inst 98189.701897                       # average overall mshr miss latency
system.cpu.icache.overall_avg_mshr_miss_latency::total 98189.701897                       # average overall mshr miss latency
system.cpu.icache.replacements                    144                       # number of replacements
system.cpu.icache.ReadReq_hits::.cpu.inst      3702140                       # number of ReadReq hits
system.cpu.icache.ReadReq_hits::total         3702140                       # number of ReadReq hits
system.cpu.icache.ReadReq_misses::.cpu.inst          498                       # number of ReadReq misses
system.cpu.icache.ReadReq_misses::total           498                       # number of ReadReq misses
system.cpu.icache.ReadReq_miss_latency::.cpu.inst     46183000                       # number of ReadReq miss cycles
system.cpu.icache.ReadReq_miss_latency::total     46183000                       # number of ReadReq miss cycles
system.cpu.icache.ReadReq_accesses::.cpu.inst      3702638                       # number of ReadReq accesses(hits+misses)
system.cpu.icache.ReadReq_accesses::total      3702638                       # number of ReadReq accesses(hits+misses)
system.cpu.icache.ReadReq_miss_rate::.cpu.inst     0.000134                       # miss rate for ReadReq accesses
system.cpu.icache.ReadReq_miss_rate::total     0.000134                       # miss rate for ReadReq accesses
system.cpu.icache.ReadReq_avg_miss_latency::.cpu.inst 92736.947791                       # average ReadReq miss latency
system.cpu.icache.ReadReq_avg_miss_latency::total 92736.947791                       # average ReadReq miss latency
system.cpu.icache.ReadReq_mshr_hits::.cpu.inst          129                       # number of ReadReq MSHR hits
system.cpu.icache.ReadReq_mshr_hits::total          129                       # number of ReadReq MSHR hits
system.cpu.icache.ReadReq_mshr_misses::.cpu.inst          369                       # number of ReadReq MSHR misses
system.cpu.icache.ReadReq_mshr_misses::total          369                       # number of ReadReq MSHR misses
system.cpu.icache.ReadReq_mshr_miss_latency::.cpu.inst     36232000                       # number of ReadReq MSHR miss cycles
system.cpu.icache.ReadReq_mshr_miss_latency::total     36232000                       # number of ReadReq MSHR miss cycles
system.cpu.icache.ReadReq_mshr_miss_rate::.cpu.inst     0.000100                       # mshr miss rate for ReadReq accesses
system.cpu.icache.ReadReq_mshr_miss_rate::total     0.000100                       # mshr miss rate for ReadReq accesses
system.cpu.icache.ReadReq_avg_mshr_miss_latency::.cpu.inst 98189.701897                       # average ReadReq mshr miss latency
system.cpu.icache.ReadReq_avg_mshr_miss_latency::total 98189.701897                       # average ReadReq mshr miss latency
system.cpu.icache.tags.pwrStateResidencyTicks::UNDEFINED  11033197000                       # Cumulative time (in ticks) in various power states
system.cpu.icache.tags.tagsinuse           212.785332                       # Cycle average of tags in use
system.cpu.icache.tags.total_refs             3702507                       # Total number of references to valid blocks.
system.cpu.icache.tags.sampled_refs               367                       # Sample count of references to valid blocks.
system.cpu.icache.tags.avg_refs          10088.574932                       # Average number of references to valid blocks.
system.cpu.icache.tags.warmup_cycle            107000                       # Cycle when the warmup percentage was hit.
system.cpu.icache.tags.occ_blocks::.cpu.inst   212.785332                       # Average occupied blocks per requestor
system.cpu.icache.tags.occ_percent::.cpu.inst     0.831193                       # Average percentage of cache occupancy
system.cpu.icache.tags.occ_percent::total     0.831193                       # Average percentage of cache occupancy
system.cpu.icache.tags.occ_task_id_blocks::1024          223                       # Occupied blocks per task id
system.cpu.icache.tags.age_task_id_blocks_1024::0           38                       # Occupied blocks per task id
system.cpu.icache.tags.age_task_id_blocks_1024::4          185                       # Occupied blocks per task id
system.cpu.icache.tags.occ_task_id_percent::1024     0.871094                       # Percentage of cache occupancy per task id
system.cpu.icache.tags.tag_accesses           7405643                       # Number of tag accesses
system.cpu.icache.tags.data_accesses          7405643                       # Number of data accesses
system.cpu.dtb.walker.pwrStateResidencyTicks::UNDEFINED  11033197000                       # Cumulative time (in ticks) in various power states
system.cpu.itb.walker.pwrStateResidencyTicks::UNDEFINED  11033197000                       # Cumulative time (in ticks) in various power states
system.cpu.istage2_mmu.stage2_tlb.walker.pwrStateResidencyTicks::UNDEFINED  11033197000                       # Cumulative time (in ticks) in various power states
system.cpu.dstage2_mmu.stage2_tlb.walker.pwrStateResidencyTicks::UNDEFINED  11033197000                       # Cumulative time (in ticks) in various power states
system.cpu.dcache.pwrStateResidencyTicks::UNDEFINED  11033197000                       # Cumulative time (in ticks) in various power states
system.cpu.dcache.demand_hits::.cpu.data     22601896                       # number of demand (read+write) hits
system.cpu.dcache.demand_hits::total         22601896                       # number of demand (read+write) hits
system.cpu.dcache.overall_hits::.cpu.data     22601896                       # number of overall hits
system.cpu.dcache.overall_hits::total        22601896                       # number of overall hits
system.cpu.dcache.demand_misses::.cpu.data          621                       # number of demand (read+write) misses
system.cpu.dcache.demand_misses::total            621                       # number of demand (read+write) misses
system.cpu.dcache.overall_misses::.cpu.data          621                       # number of overall misses
system.cpu.dcache.overall_misses::total           621                       # number of overall misses
system.cpu.dcache.demand_miss_latency::.cpu.data     54841970                       # number of demand (read+write) miss cycles
system.cpu.dcache.demand_miss_latency::total     54841970                       # number of demand (read+write) miss cycles
system.cpu.dcache.overall_miss_latency::.cpu.data     54841970                       # number of overall miss cycles
system.cpu.dcache.overall_miss_latency::total     54841970                       # number of overall miss cycles
system.cpu.dcache.demand_accesses::.cpu.data     22602517                       # number of demand (read+write) accesses
system.cpu.dcache.demand_accesses::total     22602517                       # number of demand (read+write) accesses
system.cpu.dcache.overall_accesses::.cpu.data     22602517                       # number of overall (read+write) accesses
system.cpu.dcache.overall_accesses::total     22602517                       # number of overall (read+write) accesses
system.cpu.dcache.demand_miss_rate::.cpu.data     0.000027                       # miss rate for demand accesses
system.cpu.dcache.demand_miss_rate::total     0.000027                       # miss rate for demand accesses
system.cpu.dcache.overall_miss_rate::.cpu.data     0.000027                       # miss rate for overall accesses
system.cpu.dcache.overall_miss_rate::total     0.000027                       # miss rate for overall accesses
system.cpu.dcache.demand_avg_miss_latency::.cpu.data 88312.351047                       # average overall miss latency
system.cpu.dcache.demand_avg_miss_latency::total 88312.351047                       # average overall miss latency
system.cpu.dcache.overall_avg_miss_latency::.cpu.data 88312.351047                       # average overall miss latency
system.cpu.dcache.overall_avg_miss_latency::total 88312.351047                       # average overall miss latency
system.cpu.dcache.blocked_cycles::no_mshrs         1544                       # number of cycles access was blocked
[...]
system.mem_ctrl.rdQLenPdf::11                       0                       # What read queue length does an incoming req see
system.mem_ctrl.rdQLenPdf::12                       0                       # What read queue length does an incoming req see
system.mem_ctrl.rdQLenPdf::13                       0                       # What read queue length does an incoming req see
system.mem_ctrl.rdQLenPdf::14                       0                       # What read queue length does an incoming req see
system.mem_ctrl.rdQLenPdf::15                       0                       # What read queue length does an incoming req see
system.mem_ctrl.rdQLenPdf::16                       0                       # What read queue length does an incoming req see
system.mem_ctrl.rdQLenPdf::17                       0                       # What read queue length does an incoming req see
system.mem_ctrl.rdQLenPdf::18                       0                       # What read queue length does an incoming req see
system.mem_ctrl.rdQLenPdf::19                       0                       # What read queue length does an incoming req see
system.mem_ctrl.rdQLenPdf::20                       0                       # What read queue length does an incoming req see
system.mem_ctrl.rdQLenPdf::21                       0                       # What read queue length does an incoming req see
system.mem_ctrl.rdQLenPdf::22                       0                       # What read queue length does an incoming req see
system.mem_ctrl.rdQLenPdf::23                       0                       # What read queue length does an incoming req see
system.mem_ctrl.rdQLenPdf::24                       0                       # What read queue length does an incoming req see
system.mem_ctrl.rdQLenPdf::25                       0                       # What read queue length does an incoming req see
system.mem_ctrl.rdQLenPdf::26                       0                       # What read queue length does an incoming req see
system.mem_ctrl.rdQLenPdf::27                       0                       # What read queue length does an incoming req see
system.mem_ctrl.rdQLenPdf::28                       0                       # What read queue length does an incoming req see
system.mem_ctrl.rdQLenPdf::29                       0                       # What read queue length does an incoming req see
system.mem_ctrl.rdQLenPdf::30                       0                       # What read queue length does an incoming req see
system.mem_ctrl.rdQLenPdf::31                       0                       # What read queue length does an incoming req see
system.mem_ctrl.wrQLenPdf::0                        0                       # What write queue length does an incoming req see
system.mem_ctrl.wrQLenPdf::1                        0                       # What write queue length does an incoming req see
system.mem_ctrl.wrQLenPdf::2                        0                       # What write queue length does an incoming req see
system.mem_ctrl.wrQLenPdf::3                        0                       # What write queue length does an incoming req see
system.mem_ctrl.wrQLenPdf::4                        0                       # What write queue length does an incoming req see
system.mem_ctrl.wrQLenPdf::5                        0                       # What write queue length does an incoming req see
system.mem_ctrl.wrQLenPdf::6                        0                       # What write queue length does an incoming req see
system.mem_ctrl.wrQLenPdf::7                        0                       # What write queue length does an incoming req see
system.mem_ctrl.wrQLenPdf::8                        0                       # What write queue length does an incoming req see
system.mem_ctrl.wrQLenPdf::9                        0                       # What write queue length does an incoming req see
system.mem_ctrl.wrQLenPdf::10                       0                       # What write queue length does an incoming req see
system.mem_ctrl.wrQLenPdf::11                       0                       # What write queue length does an incoming req see
system.mem_ctrl.wrQLenPdf::12                       0                       # What write queue length does an incoming req see
system.mem_ctrl.wrQLenPdf::13                       0                       # What write queue length does an incoming req see
system.mem_ctrl.wrQLenPdf::14                       0                       # What write queue length does an incoming req see
system.mem_ctrl.wrQLenPdf::15                       0                       # What write queue length does an incoming req see
system.mem_ctrl.wrQLenPdf::16                       0                       # What write queue length does an incoming req see
system.mem_ctrl.wrQLenPdf::17                       0                       # What write queue length does an incoming req see
system.mem_ctrl.wrQLenPdf::18                       0                       # What write queue length does an incoming req see
system.mem_ctrl.wrQLenPdf::19                       0                       # What write queue length does an incoming req see
system.mem_ctrl.wrQLenPdf::20                       0                       # What write queue length does an incoming req see
system.mem_ctrl.wrQLenPdf::21                       0                       # What write queue length does an incoming req see
system.mem_ctrl.wrQLenPdf::22                       0                       # What write queue length does an incoming req see
system.mem_ctrl.wrQLenPdf::23                       0                       # What write queue length does an incoming req see
system.mem_ctrl.wrQLenPdf::24                       0                       # What write queue length does an incoming req see
system.mem_ctrl.wrQLenPdf::25                       0                       # What write queue length does an incoming req see
system.mem_ctrl.wrQLenPdf::26                       0                       # What write queue length does an incoming req see
system.mem_ctrl.wrQLenPdf::27                       0                       # What write queue length does an incoming req see
system.mem_ctrl.wrQLenPdf::28                       0                       # What write queue length does an incoming req see
system.mem_ctrl.wrQLenPdf::29                       0                       # What write queue length does an incoming req see
system.mem_ctrl.wrQLenPdf::30                       0                       # What write queue length does an incoming req see
system.mem_ctrl.wrQLenPdf::31                       0                       # What write queue length does an incoming req see
system.mem_ctrl.wrQLenPdf::32                       0                       # What write queue length does an incoming req see
system.mem_ctrl.wrQLenPdf::33                       0                       # What write queue length does an incoming req see
system.mem_ctrl.wrQLenPdf::34                       0                       # What write queue length does an incoming req see
system.mem_ctrl.wrQLenPdf::35                       0                       # What write queue length does an incoming req see
system.mem_ctrl.wrQLenPdf::36                       0                       # What write queue length does an incoming req see
system.mem_ctrl.wrQLenPdf::37                       0                       # What write queue length does an incoming req see
system.mem_ctrl.wrQLenPdf::38                       0                       # What write queue length does an incoming req see
system.mem_ctrl.wrQLenPdf::39                       0                       # What write queue length does an incoming req see
system.mem_ctrl.wrQLenPdf::40                       0                       # What write queue length does an incoming req see
system.mem_ctrl.wrQLenPdf::41                       0                       # What write queue length does an incoming req see
system.mem_ctrl.wrQLenPdf::42                       0                       # What write queue length does an incoming req see
system.mem_ctrl.wrQLenPdf::43                       0                       # What write queue length does an incoming req see
system.mem_ctrl.wrQLenPdf::44                       0                       # What write queue length does an incoming req see
system.mem_ctrl.wrQLenPdf::45                       0                       # What write queue length does an incoming req see
system.mem_ctrl.wrQLenPdf::46                       0                       # What write queue length does an incoming req see
system.mem_ctrl.wrQLenPdf::47                       0                       # What write queue length does an incoming req see
system.mem_ctrl.wrQLenPdf::48                       0                       # What write queue length does an incoming req see
system.mem_ctrl.wrQLenPdf::49                       0                       # What write queue length does an incoming req see
system.mem_ctrl.wrQLenPdf::50                       0                       # What write queue length does an incoming req see
system.mem_ctrl.wrQLenPdf::51                       0                       # What write queue length does an incoming req see
system.mem_ctrl.wrQLenPdf::52                       0                       # What write queue length does an incoming req see
system.mem_ctrl.wrQLenPdf::53                       0                       # What write queue length does an incoming req see
system.mem_ctrl.wrQLenPdf::54                       0                       # What write queue length does an incoming req see
system.mem_ctrl.wrQLenPdf::55                       0                       # What write queue length does an incoming req see
system.mem_ctrl.wrQLenPdf::56                       0                       # What write queue length does an incoming req see
system.mem_ctrl.wrQLenPdf::57                       0                       # What write queue length does an incoming req see
system.mem_ctrl.wrQLenPdf::58                       0                       # What write queue length does an incoming req see
system.mem_ctrl.wrQLenPdf::59                       0                       # What write queue length does an incoming req see
system.mem_ctrl.wrQLenPdf::60                       0                       # What write queue length does an incoming req see
system.mem_ctrl.wrQLenPdf::61                       0                       # What write queue length does an incoming req see
system.mem_ctrl.wrQLenPdf::62                       0                       # What write queue length does an incoming req see
system.mem_ctrl.wrQLenPdf::63                       0                       # What write queue length does an incoming req see
system.mem_ctrl.bytesPerActivate::samples          113                       # Bytes accessed per row activation
system.mem_ctrl.bytesPerActivate::mean     298.477876                       # Bytes accessed per row activation
system.mem_ctrl.bytesPerActivate::gmean    180.884949                       # Bytes accessed per row activation
system.mem_ctrl.bytesPerActivate::stdev    320.298218                       # Bytes accessed per row activation
system.mem_ctrl.bytesPerActivate::0-127            38     33.63%     33.63% # Bytes accessed per row activation
system.mem_ctrl.bytesPerActivate::128-255           33     29.20%     62.83% # Bytes accessed per row activation
system.mem_ctrl.bytesPerActivate::256-383           11      9.73%     72.57% # Bytes accessed per row activation
system.mem_ctrl.bytesPerActivate::384-511            7      6.19%     78.76% # Bytes accessed per row activation
system.mem_ctrl.bytesPerActivate::512-639            5      4.42%     83.19% # Bytes accessed per row activation
system.mem_ctrl.bytesPerActivate::640-767            1      0.88%     84.07% # Bytes accessed per row activation
system.mem_ctrl.bytesPerActivate::768-895            3      2.65%     86.73% # Bytes accessed per row activation
system.mem_ctrl.bytesPerActivate::896-1023            3      2.65%     89.38% # Bytes accessed per row activation
system.mem_ctrl.bytesPerActivate::1024-1151           12     10.62%    100.00% # Bytes accessed per row activation
system.mem_ctrl.bytesPerActivate::total           113                       # Bytes accessed per row activation
system.mem_ctrl.bytesReadDRAM                   33728                       # Total number of bytes read from DRAM
system.mem_ctrl.bytesReadWrQ                        0                       # Total number of bytes read from write queue
system.mem_ctrl.bytesWritten                        0                       # Total number of bytes written to DRAM
system.mem_ctrl.bytesReadSys                    33792                       # Total read bytes from the system interface side
system.mem_ctrl.bytesWrittenSys                     0                       # Total written bytes from the system interface side
system.mem_ctrl.avgRdBW                          3.06                       # Average DRAM read bandwidth in MiByte/s
system.mem_ctrl.avgWrBW                          0.00                       # Average achieved write bandwidth in MiByte/s
system.mem_ctrl.avgRdBWSys                       3.06                       # Average system read bandwidth in MiByte/s
system.mem_ctrl.avgWrBWSys                       0.00                       # Average system write bandwidth in MiByte/s
system.mem_ctrl.peakBW                       12800.00                       # Theoretical peak bandwidth in MiByte/s
system.mem_ctrl.busUtil                          0.02                       # Data bus utilization in percentage
system.mem_ctrl.busUtilRead                      0.02                       # Data bus utilization in percentage for reads
system.mem_ctrl.busUtilWrite                     0.00                       # Data bus utilization in percentage for writes
system.mem_ctrl.totGap                    11033132000                       # Total gap between requests
system.mem_ctrl.avgGap                    20896083.33                       # Average gap between requests
system.mem_ctrl.masterReadBytes::.cpu.inst        22336                       # Per-master bytes read from memory
system.mem_ctrl.masterReadBytes::.cpu.data        11392                       # Per-master bytes read from memory
system.mem_ctrl.masterReadRate::.cpu.inst 2024435.891065844335                       # Per-master bytes read from memory rate (Bytes/sec)
system.mem_ctrl.masterReadRate::.cpu.data 1032520.311202636920                       # Per-master bytes read from memory rate (Bytes/sec)
system.mem_ctrl.masterReadAccesses::.cpu.inst          350                       # Per-master read serviced memory accesses
system.mem_ctrl.masterReadAccesses::.cpu.data          178                       # Per-master read serviced memory accesses
system.mem_ctrl.masterReadTotalLat::.cpu.inst      9852500                       # Per-master read total memory access latency
system.mem_ctrl.masterReadTotalLat::.cpu.data      5648000                       # Per-master read total memory access latency
system.mem_ctrl.masterReadAvgLat::.cpu.inst     28150.00                       # Per-master read average memory access latency
system.mem_ctrl.masterReadAvgLat::.cpu.data     31730.34                       # Per-master read average memory access latency
system.mem_ctrl.pageHitRate                     78.41                       # Row buffer hit rate, read and write combined
system.mem_ctrl.rank1.actEnergy                592620                       # Energy for activate commands per rank (pJ)
system.mem_ctrl.rank1.preEnergy                314985                       # Energy for precharge commands per rank (pJ)
system.mem_ctrl.rank1.readEnergy              2634660                       # Energy for read commands per rank (pJ)
system.mem_ctrl.rank1.writeEnergy                   0                       # Energy for write commands per rank (pJ)
system.mem_ctrl.rank1.refreshEnergy      870944880.000000                       # Energy for refresh commands per rank (pJ)
system.mem_ctrl.rank1.actBackEnergy         173896170                       # Energy for active background per rank (pJ)
system.mem_ctrl.rank1.preBackEnergy        4090377600                       # Energy for precharge background per rank (pJ)
system.mem_ctrl.rank1.actPowerDownEnergy            0                       # Energy for active power-down per rank (pJ)
system.mem_ctrl.rank1.prePowerDownEnergy            0                       # Energy for precharge power-down per rank (pJ)
system.mem_ctrl.rank1.selfRefreshEnergy             0                       # Energy for self refresh per rank (pJ)
system.mem_ctrl.rank1.totalEnergy          5138760915                       # Total energy per rank (pJ)
system.mem_ctrl.rank1.averagePower         465.754479                       # Core power per rank (mW)
system.mem_ctrl.rank1.totalIdleTime                 0                       # Total Idle time Per DRAM Rank
system.mem_ctrl.rank1.memoryStateTime::IDLE  10632443000                       # Time in different power states
system.mem_ctrl.rank1.memoryStateTime::REF    368227000                       # Time in different power states
system.mem_ctrl.rank1.memoryStateTime::SREF            0                       # Time in different power states
system.mem_ctrl.rank1.memoryStateTime::PRE_PDN            0                       # Time in different power states
system.mem_ctrl.rank1.memoryStateTime::ACT     32527000                       # Time in different power states
system.mem_ctrl.rank1.memoryStateTime::ACT_PDN            0                       # Time in different power states
system.mem_ctrl.rank0.actEnergy                214200                       # Energy for activate commands per rank (pJ)
system.mem_ctrl.rank0.preEnergy                113850                       # Energy for precharge commands per rank (pJ)
system.mem_ctrl.rank0.readEnergy              1128120                       # Energy for read commands per rank (pJ)
system.mem_ctrl.rank0.writeEnergy                   0                       # Energy for write commands per rank (pJ)
system.mem_ctrl.rank0.refreshEnergy      870944880.000000                       # Energy for refresh commands per rank (pJ)
system.mem_ctrl.rank0.actBackEnergy         174292320                       # Energy for active background per rank (pJ)
system.mem_ctrl.rank0.preBackEnergy        4090044000                       # Energy for precharge background per rank (pJ)
system.mem_ctrl.rank0.actPowerDownEnergy            0                       # Energy for active power-down per rank (pJ)
system.mem_ctrl.rank0.prePowerDownEnergy            0                       # Energy for precharge power-down per rank (pJ)
system.mem_ctrl.rank0.selfRefreshEnergy             0                       # Energy for self refresh per rank (pJ)
system.mem_ctrl.rank0.totalEnergy          5136737370                       # Total energy per rank (pJ)
system.mem_ctrl.rank0.averagePower         465.571073                       # Core power per rank (mW)
system.mem_ctrl.rank0.totalIdleTime                 0                       # Total Idle time Per DRAM Rank
system.mem_ctrl.rank0.memoryStateTime::IDLE  10631616250                       # Time in different power states
system.mem_ctrl.rank0.memoryStateTime::REF    368227000                       # Time in different power states
system.mem_ctrl.rank0.memoryStateTime::SREF            0                       # Time in different power states
system.mem_ctrl.rank0.memoryStateTime::PRE_PDN            0                       # Time in different power states
system.mem_ctrl.rank0.memoryStateTime::ACT     33353750                       # Time in different power states
system.mem_ctrl.rank0.memoryStateTime::ACT_PDN            0                       # Time in different power states

---------- End Simulation Statistics   ----------
